
---------- Begin Simulation Statistics ----------
final_tick                                87039929000                       # Number of ticks from beginning of simulation (restored from checkpoints and never reset)
host_inst_rate                                 792225                       # Simulator instruction rate (inst/s)
host_mem_usage                                 681288                       # Number of bytes of host memory used
host_op_rate                                  1328290                       # Simulator op (including micro ops) rate (op/s)
host_seconds                                    58.79                       # Real time elapsed on the host
host_tick_rate                             1480468554                       # Simulator tick rate (ticks/s)
sim_freq                                 1000000000000                       # Frequency of simulated ticks
sim_insts                                    46576534                       # Number of instructions simulated
sim_ops                                      78093026                       # Number of ops (including micro ops) simulated
sim_seconds                                  0.087040                       # Number of seconds simulated
sim_ticks                                 87039929000                       # Number of ticks simulated
system.cpu.Branches                           6851974                       # Number of branches fetched
system.cpu.committedInsts                    46576534                       # Number of instructions committed
system.cpu.committedOps                      78093026                       # Number of ops (including micro ops) committed
system.cpu.dtb.rdAccesses                    13698427                       # TLB accesses on read requests
system.cpu.dtb.rdMisses                            13                       # TLB misses on read requests
system.cpu.dtb.wrAccesses                     5481833                       # TLB accesses on write requests
system.cpu.dtb.wrMisses                             9                       # TLB misses on write requests
system.cpu.idle_fraction                     0.000000                       # Percentage of idle cycles
system.cpu.itb.rdAccesses                           0                       # TLB accesses on read requests
system.cpu.itb.rdMisses                             0                       # TLB misses on read requests
system.cpu.itb.wrAccesses                    57538145                       # TLB accesses on write requests
system.cpu.itb.wrMisses                            48                       # TLB misses on write requests
system.cpu.not_idle_fraction                 1.000000                       # Percentage of non-idle cycles
system.cpu.numCycles                        174079858                       # number of cpu cycles simulated
system.cpu.numWorkItemsCompleted                    0                       # number of work items this cpu completed
system.cpu.numWorkItemsStarted                      0                       # number of work items this cpu started
system.cpu.num_busy_cycles               174079857.998000                       # Number of busy cycles
system.cpu.num_cc_register_reads             26041561                       # number of times the CC registers were read
system.cpu.num_cc_register_writes            16446004                       # number of times the CC registers were written
system.cpu.num_conditional_control_insts      4112122                       # number of instructions that are conditional controls
system.cpu.num_fp_alu_accesses                   2071                       # Number of float alu accesses
system.cpu.num_fp_insts                          2071                       # number of float instructions
system.cpu.num_fp_register_reads                 3981                       # number of times the floating registers were read
system.cpu.num_fp_register_writes                1590                       # number of times the floating registers were written
system.cpu.num_func_calls                     2739154                       # number of times a function call or return occured
system.cpu.num_idle_cycles                   0.002000                       # Number of idle cycles
system.cpu.num_int_alu_accesses              78091217                       # Number of integer alu accesses
system.cpu.num_int_insts                     78091217                       # number of integer instructions
system.cpu.num_int_register_reads           178083162                       # number of times the integer registers were read
system.cpu.num_int_register_writes           65757491                       # number of times the integer registers were written
system.cpu.num_load_insts                    13698419                       # Number of load instructions
system.cpu.num_mem_refs                      19180250                       # number of memory refs
system.cpu.num_store_insts                    5481831                       # Number of store instructions
system.cpu.num_vec_alu_accesses                     0                       # Number of vector alu accesses
system.cpu.num_vec_insts                            0                       # number of vector instructions
system.cpu.num_vec_register_reads                   0                       # number of times the vector registers were read
system.cpu.num_vec_register_writes                  0                       # number of times the vector registers were written
system.cpu.op_class::No_OpClass                   114      0.00%      0.00% # Class of executed instruction
system.cpu.op_class::IntAlu                  58911567     75.44%     75.44% # Class of executed instruction
system.cpu.op_class::IntMult                       11      0.00%     75.44% # Class of executed instruction
system.cpu.op_class::IntDiv                        28      0.00%     75.44% # Class of executed instruction
system.cpu.op_class::FloatAdd                      14      0.00%     75.44% # Class of executed instruction
system.cpu.op_class::FloatCmp                       0      0.00%     75.44% # Class of executed instruction
system.cpu.op_class::FloatCvt                       0      0.00%     75.44% # Class of executed instruction
system.cpu.op_class::FloatMult                      0      0.00%     75.44% # Class of executed instruction
system.cpu.op_class::FloatMultAcc                   0      0.00%     75.44% # Class of executed instruction
system.cpu.op_class::FloatDiv                       0      0.00%     75.44% # Class of executed instruction
system.cpu.op_class::FloatMisc                      0      0.00%     75.44% # Class of executed instruction
system.cpu.op_class::FloatSqrt                      0      0.00%     75.44% # Class of executed instruction
system.cpu.op_class::SimdAdd                      374      0.00%     75.44% # Class of executed instruction
system.cpu.op_class::SimdAddAcc                     0      0.00%     75.44% # Class of executed instruction
system.cpu.op_class::SimdAlu                       92      0.00%     75.44% # Class of executed instruction
system.cpu.op_class::SimdCmp                        0      0.00%     75.44% # Class of executed instruction
system.cpu.op_class::SimdCvt                      132      0.00%     75.44% # Class of executed instruction
system.cpu.op_class::SimdMisc                     258      0.00%     75.44% # Class of executed instruction
system.cpu.op_class::SimdMult                       0      0.00%     75.44% # Class of executed instruction
system.cpu.op_class::SimdMultAcc                    0      0.00%     75.44% # Class of executed instruction
system.cpu.op_class::SimdShift                    186      0.00%     75.44% # Class of executed instruction
system.cpu.op_class::SimdShiftAcc                   0      0.00%     75.44% # Class of executed instruction
system.cpu.op_class::SimdDiv                        0      0.00%     75.44% # Class of executed instruction
system.cpu.op_class::SimdSqrt                       0      0.00%     75.44% # Class of executed instruction
system.cpu.op_class::SimdFloatAdd                   0      0.00%     75.44% # Class of executed instruction
system.cpu.op_class::SimdFloatAlu                   0      0.00%     75.44% # Class of executed instruction
system.cpu.op_class::SimdFloatCmp                   0      0.00%     75.44% # Class of executed instruction
system.cpu.op_class::SimdFloatCvt                   0      0.00%     75.44% # Class of executed instruction
system.cpu.op_class::SimdFloatDiv                   0      0.00%     75.44% # Class of executed instruction
system.cpu.op_class::SimdFloatMisc                  0      0.00%     75.44% # Class of executed instruction
system.cpu.op_class::SimdFloatMult                  0      0.00%     75.44% # Class of executed instruction
system.cpu.op_class::SimdFloatMultAcc               0      0.00%     75.44% # Class of executed instruction
system.cpu.op_class::SimdFloatSqrt                  0      0.00%     75.44% # Class of executed instruction
system.cpu.op_class::SimdReduceAdd                  0      0.00%     75.44% # Class of executed instruction
system.cpu.op_class::SimdReduceAlu                  0      0.00%     75.44% # Class of executed instruction
system.cpu.op_class::SimdReduceCmp                  0      0.00%     75.44% # Class of executed instruction
system.cpu.op_class::SimdFloatReduceAdd             0      0.00%     75.44% # Class of executed instruction
system.cpu.op_class::SimdFloatReduceCmp             0      0.00%     75.44% # Class of executed instruction
system.cpu.op_class::SimdAes                        0      0.00%     75.44% # Class of executed instruction
system.cpu.op_class::SimdAesMix                     0      0.00%     75.44% # Class of executed instruction
system.cpu.op_class::SimdSha1Hash                   0      0.00%     75.44% # Class of executed instruction
system.cpu.op_class::SimdSha1Hash2                  0      0.00%     75.44% # Class of executed instruction
system.cpu.op_class::SimdSha256Hash                 0      0.00%     75.44% # Class of executed instruction
system.cpu.op_class::SimdSha256Hash2                0      0.00%     75.44% # Class of executed instruction
system.cpu.op_class::SimdShaSigma2                  0      0.00%     75.44% # Class of executed instruction
system.cpu.op_class::SimdShaSigma3                  0      0.00%     75.44% # Class of executed instruction
system.cpu.op_class::SimdPredAlu                    0      0.00%     75.44% # Class of executed instruction
system.cpu.op_class::MemRead                 13698345     17.54%     92.98% # Class of executed instruction
system.cpu.op_class::MemWrite                 5481414      7.02%    100.00% # Class of executed instruction
system.cpu.op_class::FloatMemRead                  74      0.00%    100.00% # Class of executed instruction
system.cpu.op_class::FloatMemWrite                417      0.00%    100.00% # Class of executed instruction
system.cpu.op_class::IprAccess                      0      0.00%    100.00% # Class of executed instruction
system.cpu.op_class::InstPrefetch                   0      0.00%    100.00% # Class of executed instruction
system.cpu.op_class::total                   78093026                       # Class of executed instruction
system.cpu.workload.numSyscalls                   184                       # Number of system calls
system.membus.snoop_filter.hit_multi_requests            0                       # Number of requests hitting in the snoop filter with multiple (>1) holders of the requested data.
system.membus.snoop_filter.hit_multi_snoops            0                       # Number of snoops hitting in the snoop filter with multiple (>1) holders of the requested data.
system.membus.snoop_filter.hit_single_requests       193821                       # Number of requests hitting in the snoop filter with a single holder of the requested data.
system.membus.snoop_filter.hit_single_snoops            0                       # Number of snoops hitting in the snoop filter with a single holder of the requested data.
system.membus.snoop_filter.tot_requests        387898                       # Total number of requests made to the snoop filter.
system.membus.snoop_filter.tot_snoops               0                       # Total number of snoops made to the snoop filter.
system.membus.pwrStateResidencyTicks::UNDEFINED  87039929000                       # Cumulative time (in ticks) in various power states
system.membus.trans_dist::ReadResp             193290                       # Transaction distribution
system.membus.trans_dist::WritebackDirty        33085                       # Transaction distribution
system.membus.trans_dist::WritebackClean         1056                       # Transaction distribution
system.membus.trans_dist::CleanEvict           159680                       # Transaction distribution
system.membus.trans_dist::ReadExReq               787                       # Transaction distribution
system.membus.trans_dist::ReadExResp              787                       # Transaction distribution
system.membus.trans_dist::ReadCleanReq           1184                       # Transaction distribution
system.membus.trans_dist::ReadSharedReq        192106                       # Transaction distribution
system.membus.pkt_count_system.cpu.icache.mem_side::system.mem_ctrls.port         3424                       # Packet count per connected master and slave (bytes)
system.membus.pkt_count_system.cpu.icache.mem_side::total         3424                       # Packet count per connected master and slave (bytes)
system.membus.pkt_count_system.cpu.dcache.mem_side::system.mem_ctrls.port       578551                       # Packet count per connected master and slave (bytes)
system.membus.pkt_count_system.cpu.dcache.mem_side::total       578551                       # Packet count per connected master and slave (bytes)
system.membus.pkt_count::total                 581975                       # Packet count per connected master and slave (bytes)
system.membus.pkt_size_system.cpu.icache.mem_side::system.mem_ctrls.port        71680                       # Cumulative packet size per connected master and slave (bytes)
system.membus.pkt_size_system.cpu.icache.mem_side::total        71680                       # Cumulative packet size per connected master and slave (bytes)
system.membus.pkt_size_system.cpu.dcache.mem_side::system.mem_ctrls.port      7231296                       # Cumulative packet size per connected master and slave (bytes)
system.membus.pkt_size_system.cpu.dcache.mem_side::total      7231296                       # Cumulative packet size per connected master and slave (bytes)
system.membus.pkt_size::total                 7302976                       # Cumulative packet size per connected master and slave (bytes)
system.membus.snoops                                0                       # Total snoops (count)
system.membus.snoopTraffic                          0                       # Total snoop traffic (bytes)
system.membus.snoop_fanout::samples            194077                       # Request fanout histogram
system.membus.snoop_fanout::mean                    0                       # Request fanout histogram
system.membus.snoop_fanout::stdev                   0                       # Request fanout histogram
system.membus.snoop_fanout::underflows              0      0.00%      0.00% # Request fanout histogram
system.membus.snoop_fanout::0                  194077    100.00%    100.00% # Request fanout histogram
system.membus.snoop_fanout::1                       0      0.00%    100.00% # Request fanout histogram
system.membus.snoop_fanout::2                       0      0.00%    100.00% # Request fanout histogram
system.membus.snoop_fanout::3                       0      0.00%    100.00% # Request fanout histogram
system.membus.snoop_fanout::4                       0      0.00%    100.00% # Request fanout histogram
system.membus.snoop_fanout::overflows               0      0.00%    100.00% # Request fanout histogram
system.membus.snoop_fanout::min_value               0                       # Request fanout histogram
system.membus.snoop_fanout::max_value               0                       # Request fanout histogram
system.membus.snoop_fanout::total              194077                       # Request fanout histogram
system.membus.reqLayer2.occupancy           456181000                       # Layer occupancy (ticks)
system.membus.reqLayer2.utilization               0.5                       # Layer utilization (%)
system.membus.respLayer1.occupancy            3913500                       # Layer occupancy (ticks)
system.membus.respLayer1.utilization              0.0                       # Layer utilization (%)
system.membus.respLayer2.occupancy          629564000                       # Layer occupancy (ticks)
system.membus.respLayer2.utilization              0.7                       # Layer utilization (%)
system.voltage_domain.voltage                       1                       # Voltage in Volts
system.clk_domain.clock                          1000                       # Clock period in ticks
system.cpu_voltage_domain.voltage                   1                       # Voltage in Volts
system.mem_ctrls.pwrStateResidencyTicks::UNDEFINED  87039929000                       # Cumulative time (in ticks) in various power states
system.mem_ctrls.bytes_read::.cpu.inst          37888                       # Number of bytes read from this memory
system.mem_ctrls.bytes_read::.cpu.data        6172576                       # Number of bytes read from this memory
system.mem_ctrls.bytes_read::total            6210464                       # Number of bytes read from this memory
system.mem_ctrls.bytes_inst_read::.cpu.inst        37888                       # Number of instructions bytes read from this memory
system.mem_ctrls.bytes_inst_read::total         37888                       # Number of instructions bytes read from this memory
system.mem_ctrls.bytes_written::.writebacks      1058720                       # Number of bytes written to this memory
system.mem_ctrls.bytes_written::total         1058720                       # Number of bytes written to this memory
system.mem_ctrls.num_reads::.cpu.inst            1184                       # Number of read requests responded to by this memory
system.mem_ctrls.num_reads::.cpu.data          192893                       # Number of read requests responded to by this memory
system.mem_ctrls.num_reads::total              194077                       # Number of read requests responded to by this memory
system.mem_ctrls.num_writes::.writebacks        33085                       # Number of write requests responded to by this memory
system.mem_ctrls.num_writes::total              33085                       # Number of write requests responded to by this memory
system.mem_ctrls.bw_read::.cpu.inst            435294                       # Total read bandwidth from this memory (bytes/s)
system.mem_ctrls.bw_read::.cpu.data          70916602                       # Total read bandwidth from this memory (bytes/s)
system.mem_ctrls.bw_read::total              71351896                       # Total read bandwidth from this memory (bytes/s)
system.mem_ctrls.bw_inst_read::.cpu.inst       435294                       # Instruction read bandwidth from this memory (bytes/s)
system.mem_ctrls.bw_inst_read::total           435294                       # Instruction read bandwidth from this memory (bytes/s)
system.mem_ctrls.bw_write::.writebacks       12163613                       # Write bandwidth from this memory (bytes/s)
system.mem_ctrls.bw_write::total             12163613                       # Write bandwidth from this memory (bytes/s)
system.mem_ctrls.bw_total::.writebacks       12163613                       # Total bandwidth to/from this memory (bytes/s)
system.mem_ctrls.bw_total::.cpu.inst           435294                       # Total bandwidth to/from this memory (bytes/s)
system.mem_ctrls.bw_total::.cpu.data         70916602                       # Total bandwidth to/from this memory (bytes/s)
system.mem_ctrls.bw_total::total             83515509                       # Total bandwidth to/from this memory (bytes/s)
system.mem_ctrls.avgPriority_.writebacks::samples      1097.00                       # Average QoS priority value for accepted requests
system.mem_ctrls.avgPriority_.cpu.inst::samples      1151.00                       # Average QoS priority value for accepted requests
system.mem_ctrls.avgPriority_.cpu.data::samples    181504.00                       # Average QoS priority value for accepted requests
system.mem_ctrls.priorityMinLatency      0.000000018750                       # per QoS priority minimum request to response latency (s)
system.mem_ctrls.priorityMaxLatency      0.173799262750                       # per QoS priority maximum request to response latency (s)
system.mem_ctrls.numReadWriteTurnArounds           67                       # Number of turnarounds from READ to WRITE
system.mem_ctrls.numWriteReadTurnArounds           67                       # Number of turnarounds from WRITE to READ
system.mem_ctrls.numStayReadState              421740                       # Number of times bus staying in READ state
system.mem_ctrls.numStayWriteState               1009                       # Number of times bus staying in WRITE state
system.mem_ctrls.readReqs                      194077                       # Number of read requests accepted
system.mem_ctrls.writeReqs                      34141                       # Number of write requests accepted
system.mem_ctrls.readBursts                    194077                       # Number of DRAM read bursts, including those serviced by the write queue
system.mem_ctrls.writeBursts                    34141                       # Number of DRAM write bursts, including those merged in the write queue
system.mem_ctrls.servicedByWrQ                  11422                       # Number of DRAM read bursts serviced by the write queue
system.mem_ctrls.mergedWrBursts                 33044                       # Number of DRAM write bursts merged with an existing one
system.mem_ctrls.neitherReadNorWriteReqs            0                       # Number of requests that are neither read nor write
system.mem_ctrls.perBankRdBursts::0               311                       # Per bank write bursts
system.mem_ctrls.perBankRdBursts::1             34443                       # Per bank write bursts
system.mem_ctrls.perBankRdBursts::2             92557                       # Per bank write bursts
system.mem_ctrls.perBankRdBursts::3                13                       # Per bank write bursts
system.mem_ctrls.perBankRdBursts::4                19                       # Per bank write bursts
system.mem_ctrls.perBankRdBursts::5                19                       # Per bank write bursts
system.mem_ctrls.perBankRdBursts::6               110                       # Per bank write bursts
system.mem_ctrls.perBankRdBursts::7                81                       # Per bank write bursts
system.mem_ctrls.perBankRdBursts::8                35                       # Per bank write bursts
system.mem_ctrls.perBankRdBursts::9                46                       # Per bank write bursts
system.mem_ctrls.perBankRdBursts::10               95                       # Per bank write bursts
system.mem_ctrls.perBankRdBursts::11              148                       # Per bank write bursts
system.mem_ctrls.perBankRdBursts::12               59                       # Per bank write bursts
system.mem_ctrls.perBankRdBursts::13            32361                       # Per bank write bursts
system.mem_ctrls.perBankRdBursts::14              570                       # Per bank write bursts
system.mem_ctrls.perBankRdBursts::15            21788                       # Per bank write bursts
system.mem_ctrls.perBankWrBursts::0               183                       # Per bank write bursts
system.mem_ctrls.perBankWrBursts::1               107                       # Per bank write bursts
system.mem_ctrls.perBankWrBursts::2                27                       # Per bank write bursts
system.mem_ctrls.perBankWrBursts::3                 6                       # Per bank write bursts
system.mem_ctrls.perBankWrBursts::4                13                       # Per bank write bursts
system.mem_ctrls.perBankWrBursts::5                13                       # Per bank write bursts
system.mem_ctrls.perBankWrBursts::6                85                       # Per bank write bursts
system.mem_ctrls.perBankWrBursts::7                46                       # Per bank write bursts
system.mem_ctrls.perBankWrBursts::8                30                       # Per bank write bursts
system.mem_ctrls.perBankWrBursts::9                31                       # Per bank write bursts
system.mem_ctrls.perBankWrBursts::10               60                       # Per bank write bursts
system.mem_ctrls.perBankWrBursts::11               73                       # Per bank write bursts
system.mem_ctrls.perBankWrBursts::12               15                       # Per bank write bursts
system.mem_ctrls.perBankWrBursts::13              123                       # Per bank write bursts
system.mem_ctrls.perBankWrBursts::14              165                       # Per bank write bursts
system.mem_ctrls.perBankWrBursts::15               99                       # Per bank write bursts
system.mem_ctrls.avgRdQLen                       1.00                       # Average read queue length when enqueuing
system.mem_ctrls.avgWrQLen                      19.05                       # Average write queue length when enqueuing
system.mem_ctrls.totQLat                    941716250                       # Total ticks spent queuing
system.mem_ctrls.totBusLat                  913275000                       # Total ticks spent in databus transfers
system.mem_ctrls.totMemAccLat              4366497500                       # Total ticks spent from burst creation until serviced by the DRAM
system.mem_ctrls.avgQLat                      5155.71                       # Average queueing delay per DRAM burst
system.mem_ctrls.avgBusLat                    5000.00                       # Average bus latency per DRAM burst
system.mem_ctrls.avgMemAccLat                23905.71                       # Average memory access latency per DRAM burst
system.mem_ctrls.numRdRetry                         0                       # Number of times read queue was full causing retry
system.mem_ctrls.numWrRetry                         0                       # Number of times write queue was full causing retry
system.mem_ctrls.readRowHits                   158670                       # Number of row buffer hits during reads
system.mem_ctrls.writeRowHits                     871                       # Number of row buffer hits during writes
system.mem_ctrls.readRowHitRate                 86.87                       # Row buffer hit rate for reads
system.mem_ctrls.writeRowHitRate                79.40                       # Row buffer hit rate for writes
system.mem_ctrls.readPktSize::0                     0                       # Read request sizes (log2)
system.mem_ctrls.readPktSize::1                     0                       # Read request sizes (log2)
system.mem_ctrls.readPktSize::2                     0                       # Read request sizes (log2)
system.mem_ctrls.readPktSize::3                     0                       # Read request sizes (log2)
system.mem_ctrls.readPktSize::4                     0                       # Read request sizes (log2)
system.mem_ctrls.readPktSize::5                194077                       # Read request sizes (log2)
system.mem_ctrls.readPktSize::6                     0                       # Read request sizes (log2)
system.mem_ctrls.writePktSize::0                    0                       # Write request sizes (log2)
system.mem_ctrls.writePktSize::1                    0                       # Write request sizes (log2)
system.mem_ctrls.writePktSize::2                    0                       # Write request sizes (log2)
system.mem_ctrls.writePktSize::3                    0                       # Write request sizes (log2)
system.mem_ctrls.writePktSize::4                    0                       # Write request sizes (log2)
system.mem_ctrls.writePktSize::5                34141                       # Write request sizes (log2)
system.mem_ctrls.writePktSize::6                    0                       # Write request sizes (log2)
system.mem_ctrls.rdQLenPdf::0                  182655                       # What read queue length does an incoming req see
system.mem_ctrls.rdQLenPdf::1                       0                       # What read queue length does an incoming req see
system.mem_ctrls.rdQLenPdf::2                       0                       # What read queue length does an incoming req see
system.mem_ctrls.rdQLenPdf::3                       0                       # What read queue length does an incoming req see
system.mem_ctrls.rdQLenPdf::4                       0                       # What read queue length does an incoming req see
system.mem_ctrls.rdQLenPdf::5                       0                       # What read queue length does an incoming req see
system.mem_ctrls.rdQLenPdf::6                       0                       # What read queue length does an incoming req see
system.mem_ctrls.rdQLenPdf::7                       0                       # What read queue length does an incoming req see
system.mem_ctrls.rdQLenPdf::8                       0                       # What read queue length does an incoming req see
system.mem_ctrls.rdQLenPdf::9                       0                       # What read queue length does an incoming req see
system.mem_ctrls.rdQLenPdf::10                      0                       # What read queue length does an incoming req see
system.mem_ctrls.rdQLenPdf::11                      0                       # What read queue length does an incoming req see
system.mem_ctrls.rdQLenPdf::12                      0                       # What read queue length does an incoming req see
system.mem_ctrls.rdQLenPdf::13                      0                       # What read queue length does an incoming req see
system.mem_ctrls.rdQLenPdf::14                      0                       # What read queue length does an incoming req see
system.mem_ctrls.rdQLenPdf::15                      0                       # What read queue length does an incoming req see
system.mem_ctrls.rdQLenPdf::16                      0                       # What read queue length does an incoming req see
system.mem_ctrls.rdQLenPdf::17                      0                       # What read queue length does an incoming req see
system.mem_ctrls.rdQLenPdf::18                      0                       # What read queue length does an incoming req see
system.mem_ctrls.rdQLenPdf::19                      0                       # What read queue length does an incoming req see
system.mem_ctrls.rdQLenPdf::20                      0                       # What read queue length does an incoming req see
system.mem_ctrls.rdQLenPdf::21                      0                       # What read queue length does an incoming req see
system.mem_ctrls.rdQLenPdf::22                      0                       # What read queue length does an incoming req see
system.mem_ctrls.rdQLenPdf::23                      0                       # What read queue length does an incoming req see
system.mem_ctrls.rdQLenPdf::24                      0                       # What read queue length does an incoming req see
system.mem_ctrls.rdQLenPdf::25                      0                       # What read queue length does an incoming req see
system.mem_ctrls.rdQLenPdf::26                      0                       # What read queue length does an incoming req see
system.mem_ctrls.rdQLenPdf::27                      0                       # What read queue length does an incoming req see
system.mem_ctrls.rdQLenPdf::28                      0                       # What read queue length does an incoming req see
system.mem_ctrls.rdQLenPdf::29                      0                       # What read queue length does an incoming req see
system.mem_ctrls.rdQLenPdf::30                      0                       # What read queue length does an incoming req see
system.mem_ctrls.rdQLenPdf::31                      0                       # What read queue length does an incoming req see
system.mem_ctrls.wrQLenPdf::0                       1                       # What write queue length does an incoming req see
system.mem_ctrls.wrQLenPdf::1                       1                       # What write queue length does an incoming req see
system.mem_ctrls.wrQLenPdf::2                       1                       # What write queue length does an incoming req see
system.mem_ctrls.wrQLenPdf::3                       1                       # What write queue length does an incoming req see
system.mem_ctrls.wrQLenPdf::4                       1                       # What write queue length does an incoming req see
system.mem_ctrls.wrQLenPdf::5                       1                       # What write queue length does an incoming req see
system.mem_ctrls.wrQLenPdf::6                       1                       # What write queue length does an incoming req see
system.mem_ctrls.wrQLenPdf::7                       1                       # What write queue length does an incoming req see
system.mem_ctrls.wrQLenPdf::8                       1                       # What write queue length does an incoming req see
system.mem_ctrls.wrQLenPdf::9                       1                       # What write queue length does an incoming req see
system.mem_ctrls.wrQLenPdf::10                      1                       # What write queue length does an incoming req see
system.mem_ctrls.wrQLenPdf::11                      1                       # What write queue length does an incoming req see
system.mem_ctrls.wrQLenPdf::12                      1                       # What write queue length does an incoming req see
system.mem_ctrls.wrQLenPdf::13                      1                       # What write queue length does an incoming req see
system.mem_ctrls.wrQLenPdf::14                      1                       # What write queue length does an incoming req see
system.mem_ctrls.wrQLenPdf::15                      3                       # What write queue length does an incoming req see
system.mem_ctrls.wrQLenPdf::16                      3                       # What write queue length does an incoming req see
system.mem_ctrls.wrQLenPdf::17                     67                       # What write queue length does an incoming req see
system.mem_ctrls.wrQLenPdf::18                     68                       # What write queue length does an incoming req see
system.mem_ctrls.wrQLenPdf::19                     68                       # What write queue length does an incoming req see
system.mem_ctrls.wrQLenPdf::20                     68                       # What write queue length does an incoming req see
system.mem_ctrls.wrQLenPdf::21                     68                       # What write queue length does an incoming req see
system.mem_ctrls.wrQLenPdf::22                     67                       # What write queue length does an incoming req see
system.mem_ctrls.wrQLenPdf::23                     67                       # What write queue length does an incoming req see
system.mem_ctrls.wrQLenPdf::24                     67                       # What write queue length does an incoming req see
system.mem_ctrls.wrQLenPdf::25                     67                       # What write queue length does an incoming req see
system.mem_ctrls.wrQLenPdf::26                     67                       # What write queue length does an incoming req see
system.mem_ctrls.wrQLenPdf::27                     67                       # What write queue length does an incoming req see
system.mem_ctrls.wrQLenPdf::28                     67                       # What write queue length does an incoming req see
system.mem_ctrls.wrQLenPdf::29                     67                       # What write queue length does an incoming req see
system.mem_ctrls.wrQLenPdf::30                     67                       # What write queue length does an incoming req see
system.mem_ctrls.wrQLenPdf::31                     67                       # What write queue length does an incoming req see
system.mem_ctrls.wrQLenPdf::32                     67                       # What write queue length does an incoming req see
system.mem_ctrls.wrQLenPdf::33                      0                       # What write queue length does an incoming req see
system.mem_ctrls.wrQLenPdf::34                      0                       # What write queue length does an incoming req see
system.mem_ctrls.wrQLenPdf::35                      0                       # What write queue length does an incoming req see
system.mem_ctrls.wrQLenPdf::36                      0                       # What write queue length does an incoming req see
system.mem_ctrls.wrQLenPdf::37                      0                       # What write queue length does an incoming req see
system.mem_ctrls.wrQLenPdf::38                      0                       # What write queue length does an incoming req see
system.mem_ctrls.wrQLenPdf::39                      0                       # What write queue length does an incoming req see
system.mem_ctrls.wrQLenPdf::40                      0                       # What write queue length does an incoming req see
system.mem_ctrls.wrQLenPdf::41                      0                       # What write queue length does an incoming req see
system.mem_ctrls.wrQLenPdf::42                      0                       # What write queue length does an incoming req see
system.mem_ctrls.wrQLenPdf::43                      0                       # What write queue length does an incoming req see
system.mem_ctrls.wrQLenPdf::44                      0                       # What write queue length does an incoming req see
system.mem_ctrls.wrQLenPdf::45                      0                       # What write queue length does an incoming req see
system.mem_ctrls.wrQLenPdf::46                      0                       # What write queue length does an incoming req see
system.mem_ctrls.wrQLenPdf::47                      0                       # What write queue length does an incoming req see
system.mem_ctrls.wrQLenPdf::48                      0                       # What write queue length does an incoming req see
system.mem_ctrls.wrQLenPdf::49                      0                       # What write queue length does an incoming req see
system.mem_ctrls.wrQLenPdf::50                      0                       # What write queue length does an incoming req see
system.mem_ctrls.wrQLenPdf::51                      0                       # What write queue length does an incoming req see
system.mem_ctrls.wrQLenPdf::52                      0                       # What write queue length does an incoming req see
system.mem_ctrls.wrQLenPdf::53                      0                       # What write queue length does an incoming req see
system.mem_ctrls.wrQLenPdf::54                      0                       # What write queue length does an incoming req see
system.mem_ctrls.wrQLenPdf::55                      0                       # What write queue length does an incoming req see
system.mem_ctrls.wrQLenPdf::56                      0                       # What write queue length does an incoming req see
system.mem_ctrls.wrQLenPdf::57                      0                       # What write queue length does an incoming req see
system.mem_ctrls.wrQLenPdf::58                      0                       # What write queue length does an incoming req see
system.mem_ctrls.wrQLenPdf::59                      0                       # What write queue length does an incoming req see
system.mem_ctrls.wrQLenPdf::60                      0                       # What write queue length does an incoming req see
system.mem_ctrls.wrQLenPdf::61                      0                       # What write queue length does an incoming req see
system.mem_ctrls.wrQLenPdf::62                      0                       # What write queue length does an incoming req see
system.mem_ctrls.wrQLenPdf::63                      0                       # What write queue length does an incoming req see
system.mem_ctrls.bytesPerActivate::samples        24183                       # Bytes accessed per row activation
system.mem_ctrls.bytesPerActivate::mean    486.186164                       # Bytes accessed per row activation
system.mem_ctrls.bytesPerActivate::gmean   393.933029                       # Bytes accessed per row activation
system.mem_ctrls.bytesPerActivate::stdev   306.389107                       # Bytes accessed per row activation
system.mem_ctrls.bytesPerActivate::0-127          979      4.05%      4.05% # Bytes accessed per row activation
system.mem_ctrls.bytesPerActivate::128-255         1844      7.63%     11.67% # Bytes accessed per row activation
system.mem_ctrls.bytesPerActivate::256-383         8231     34.04%     45.71% # Bytes accessed per row activation
system.mem_ctrls.bytesPerActivate::384-511         5116     21.16%     66.87% # Bytes accessed per row activation
system.mem_ctrls.bytesPerActivate::512-639         1722      7.12%     73.99% # Bytes accessed per row activation
system.mem_ctrls.bytesPerActivate::640-767          694      2.87%     76.86% # Bytes accessed per row activation
system.mem_ctrls.bytesPerActivate::768-895          490      2.03%     78.88% # Bytes accessed per row activation
system.mem_ctrls.bytesPerActivate::896-1023          458      1.89%     80.78% # Bytes accessed per row activation
system.mem_ctrls.bytesPerActivate::1024-1151         4649     19.22%    100.00% # Bytes accessed per row activation
system.mem_ctrls.bytesPerActivate::total        24183                       # Bytes accessed per row activation
system.mem_ctrls.rdPerTurnAround::samples           67                       # Reads before turning the bus around for writes
system.mem_ctrls.rdPerTurnAround::mean    2726.119403                       # Reads before turning the bus around for writes
system.mem_ctrls.rdPerTurnAround::gmean     30.804242                       # Reads before turning the bus around for writes
system.mem_ctrls.rdPerTurnAround::stdev  21951.700405                       # Reads before turning the bus around for writes
system.mem_ctrls.rdPerTurnAround::0-8191           66     98.51%     98.51% # Reads before turning the bus around for writes
system.mem_ctrls.rdPerTurnAround::172032-180223            1      1.49%    100.00% # Reads before turning the bus around for writes
system.mem_ctrls.rdPerTurnAround::total            67                       # Reads before turning the bus around for writes
system.mem_ctrls.wrPerTurnAround::samples           67                       # Writes before turning the bus around for reads
system.mem_ctrls.wrPerTurnAround::mean      16.059701                       # Writes before turning the bus around for reads
system.mem_ctrls.wrPerTurnAround::gmean     16.056354                       # Writes before turning the bus around for reads
system.mem_ctrls.wrPerTurnAround::stdev      0.342920                       # Writes before turning the bus around for reads
system.mem_ctrls.wrPerTurnAround::16               65     97.01%     97.01% # Writes before turning the bus around for reads
system.mem_ctrls.wrPerTurnAround::18                2      2.99%    100.00% # Writes before turning the bus around for reads
system.mem_ctrls.wrPerTurnAround::total            67                       # Writes before turning the bus around for reads
system.mem_ctrls.bytesReadDRAM               11689920                       # Total number of bytes read from DRAM
system.mem_ctrls.bytesReadWrQ                  731008                       # Total number of bytes read from write queue
system.mem_ctrls.bytesWritten                   68864                       # Total number of bytes written to DRAM
system.mem_ctrls.bytesReadSys                 6210464                       # Total read bytes from the system interface side
system.mem_ctrls.bytesWrittenSys              1092512                       # Total written bytes from the system interface side
system.mem_ctrls.avgRdBW                       134.31                       # Average DRAM read bandwidth in MiByte/s
system.mem_ctrls.avgWrBW                         0.79                       # Average achieved write bandwidth in MiByte/s
system.mem_ctrls.avgRdBWSys                     71.35                       # Average system read bandwidth in MiByte/s
system.mem_ctrls.avgWrBWSys                     12.55                       # Average system write bandwidth in MiByte/s
system.mem_ctrls.peakBW                      12800.00                       # Theoretical peak bandwidth in MiByte/s
system.mem_ctrls.busUtil                         1.06                       # Data bus utilization in percentage
system.mem_ctrls.busUtilRead                     1.05                       # Data bus utilization in percentage for reads
system.mem_ctrls.busUtilWrite                    0.01                       # Data bus utilization in percentage for writes
system.mem_ctrls.totGap                   87039923000                       # Total gap between requests
system.mem_ctrls.avgGap                     381389.39                       # Average gap between requests
system.mem_ctrls.masterReadBytes::.cpu.inst        36832                       # Per-master bytes read from memory
system.mem_ctrls.masterReadBytes::.cpu.data      5808128                       # Per-master bytes read from memory
system.mem_ctrls.masterWriteBytes::.writebacks        34432                       # Per-master bytes write to memory
system.mem_ctrls.masterReadRate::.cpu.inst 423162.109886371822                       # Per-master bytes read from memory rate (Bytes/sec)
system.mem_ctrls.masterReadRate::.cpu.data 66729466.197059974074                       # Per-master bytes read from memory rate (Bytes/sec)
system.mem_ctrls.masterWriteRate::.writebacks 395588.557982394472                       # Per-master bytes write to memory rate (Bytes/sec)
system.mem_ctrls.masterReadAccesses::.cpu.inst         1184                       # Per-master read serviced memory accesses
system.mem_ctrls.masterReadAccesses::.cpu.data       192893                       # Per-master read serviced memory accesses
system.mem_ctrls.masterWriteAccesses::.writebacks        34141                       # Per-master write serviced memory accesses
system.mem_ctrls.masterReadTotalLat::.cpu.inst     32076500                       # Per-master read total memory access latency
system.mem_ctrls.masterReadTotalLat::.cpu.data   4334421000                       # Per-master read total memory access latency
system.mem_ctrls.masterWriteTotalLat::.writebacks 1657950246750                       # Per-master write total memory access latency
system.mem_ctrls.masterReadAvgLat::.cpu.inst     27091.64                       # Per-master read average memory access latency
system.mem_ctrls.masterReadAvgLat::.cpu.data     22470.60                       # Per-master read average memory access latency
system.mem_ctrls.masterWriteAvgLat::.writebacks  48561853.69                       # Per-master write average memory access latency
system.mem_ctrls.pageHitRate                    86.82                       # Row buffer hit rate, read and write combined
system.mem_ctrls.rank1.actEnergy             59519040                       # Energy for activate commands per rank (pJ)
system.mem_ctrls.rank1.preEnergy             31616145                       # Energy for precharge commands per rank (pJ)
system.mem_ctrls.rank1.readEnergy           393428280                       # Energy for read commands per rank (pJ)
system.mem_ctrls.rank1.writeEnergy            3111120                       # Energy for write commands per rank (pJ)
system.mem_ctrls.rank1.refreshEnergy     6870445920.000001                       # Energy for refresh commands per rank (pJ)
system.mem_ctrls.rank1.actBackEnergy      20749151400                       # Energy for active background per rank (pJ)
system.mem_ctrls.rank1.preBackEnergy      15950363520                       # Energy for precharge background per rank (pJ)
system.mem_ctrls.rank1.actPowerDownEnergy            0                       # Energy for active power-down per rank (pJ)
system.mem_ctrls.rank1.prePowerDownEnergy            0                       # Energy for precharge power-down per rank (pJ)
system.mem_ctrls.rank1.selfRefreshEnergy            0                       # Energy for self refresh per rank (pJ)
system.mem_ctrls.rank1.totalEnergy        44057635425                       # Total energy per rank (pJ)
system.mem_ctrls.rank1.averagePower        506.177290                       # Core power per rank (mW)
system.mem_ctrls.rank1.totalIdleTime                0                       # Total Idle time Per DRAM Rank
system.mem_ctrls.rank1.memoryStateTime::IDLE  41276962500                       # Time in different power states
system.mem_ctrls.rank1.memoryStateTime::REF   2906280000                       # Time in different power states
system.mem_ctrls.rank1.memoryStateTime::SREF            0                       # Time in different power states
system.mem_ctrls.rank1.memoryStateTime::PRE_PDN            0                       # Time in different power states
system.mem_ctrls.rank1.memoryStateTime::ACT  42856686500                       # Time in different power states
system.mem_ctrls.rank1.memoryStateTime::ACT_PDN            0                       # Time in different power states
system.mem_ctrls.rank0.actEnergy            113197560                       # Energy for activate commands per rank (pJ)
system.mem_ctrls.rank0.preEnergy             60158340                       # Energy for precharge commands per rank (pJ)
system.mem_ctrls.rank0.readEnergy           910728420                       # Energy for read commands per rank (pJ)
system.mem_ctrls.rank0.writeEnergy            2505600                       # Energy for write commands per rank (pJ)
system.mem_ctrls.rank0.refreshEnergy     6870445920.000001                       # Energy for refresh commands per rank (pJ)
system.mem_ctrls.rank0.actBackEnergy      36637948710                       # Energy for active background per rank (pJ)
system.mem_ctrls.rank0.preBackEnergy       2570323680                       # Energy for precharge background per rank (pJ)
system.mem_ctrls.rank0.actPowerDownEnergy            0                       # Energy for active power-down per rank (pJ)
system.mem_ctrls.rank0.prePowerDownEnergy            0                       # Energy for precharge power-down per rank (pJ)
system.mem_ctrls.rank0.selfRefreshEnergy            0                       # Energy for self refresh per rank (pJ)
system.mem_ctrls.rank0.totalEnergy        47165308230                       # Total energy per rank (pJ)
system.mem_ctrls.rank0.averagePower        541.881281                       # Core power per rank (mW)
system.mem_ctrls.rank0.totalIdleTime                0                       # Total Idle time Per DRAM Rank
system.mem_ctrls.rank0.memoryStateTime::IDLE   6354387500                       # Time in different power states
system.mem_ctrls.rank0.memoryStateTime::REF   2906280000                       # Time in different power states
system.mem_ctrls.rank0.memoryStateTime::SREF            0                       # Time in different power states
system.mem_ctrls.rank0.memoryStateTime::PRE_PDN            0                       # Time in different power states
system.mem_ctrls.rank0.memoryStateTime::ACT  77779261500                       # Time in different power states
system.mem_ctrls.rank0.memoryStateTime::ACT_PDN            0                       # Time in different power states
system.cpu_clk_domain.clock                       500                       # Clock period in ticks
system.cpu.numPwrStateTransitions                   1                       # Number of power state transitions
system.cpu.pwrStateResidencyTicks::ON     87039929000                       # Cumulative time (in ticks) in various power states
system.cpu.icache.pwrStateResidencyTicks::UNDEFINED  87039929000                       # Cumulative time (in ticks) in various power states
system.cpu.icache.demand_hits::.cpu.inst     57536961                       # number of demand (read+write) hits
system.cpu.icache.demand_hits::total         57536961                       # number of demand (read+write) hits
system.cpu.icache.overall_hits::.cpu.inst     57536961                       # number of overall hits
system.cpu.icache.overall_hits::total        57536961                       # number of overall hits
system.cpu.icache.demand_misses::.cpu.inst         1184                       # number of demand (read+write) misses
system.cpu.icache.demand_misses::total           1184                       # number of demand (read+write) misses
system.cpu.icache.overall_misses::.cpu.inst         1184                       # number of overall misses
system.cpu.icache.overall_misses::total          1184                       # number of overall misses
system.cpu.icache.demand_miss_latency::.cpu.inst     70164500                       # number of demand (read+write) miss cycles
system.cpu.icache.demand_miss_latency::total     70164500                       # number of demand (read+write) miss cycles
system.cpu.icache.overall_miss_latency::.cpu.inst     70164500                       # number of overall miss cycles
system.cpu.icache.overall_miss_latency::total     70164500                       # number of overall miss cycles
system.cpu.icache.demand_accesses::.cpu.inst     57538145                       # number of demand (read+write) accesses
system.cpu.icache.demand_accesses::total     57538145                       # number of demand (read+write) accesses
system.cpu.icache.overall_accesses::.cpu.inst     57538145                       # number of overall (read+write) accesses
system.cpu.icache.overall_accesses::total     57538145                       # number of overall (read+write) accesses
system.cpu.icache.demand_miss_rate::.cpu.inst     0.000021                       # miss rate for demand accesses
system.cpu.icache.demand_miss_rate::total     0.000021                       # miss rate for demand accesses
system.cpu.icache.overall_miss_rate::.cpu.inst     0.000021                       # miss rate for overall accesses
system.cpu.icache.overall_miss_rate::total     0.000021                       # miss rate for overall accesses
system.cpu.icache.demand_avg_miss_latency::.cpu.inst 59260.557432                       # average overall miss latency
system.cpu.icache.demand_avg_miss_latency::total 59260.557432                       # average overall miss latency
system.cpu.icache.overall_avg_miss_latency::.cpu.inst 59260.557432                       # average overall miss latency
system.cpu.icache.overall_avg_miss_latency::total 59260.557432                       # average overall miss latency
system.cpu.icache.blocked_cycles::no_mshrs            0                       # number of cycles access was blocked
system.cpu.icache.blocked_cycles::no_targets            0                       # number of cycles access was blocked
system.cpu.icache.blocked::no_mshrs                 0                       # number of cycles access was blocked
system.cpu.icache.blocked::no_targets               0                       # number of cycles access was blocked
system.cpu.icache.avg_blocked_cycles::no_mshrs          nan                       # average number of cycles each access was blocked
system.cpu.icache.avg_blocked_cycles::no_targets          nan                       # average number of cycles each access was blocked
system.cpu.icache.writebacks::.writebacks         1056                       # number of writebacks
system.cpu.icache.writebacks::total              1056                       # number of writebacks
system.cpu.icache.demand_mshr_misses::.cpu.inst         1184                       # number of demand (read+write) MSHR misses
system.cpu.icache.demand_mshr_misses::total         1184                       # number of demand (read+write) MSHR misses
system.cpu.icache.overall_mshr_misses::.cpu.inst         1184                       # number of overall MSHR misses
system.cpu.icache.overall_mshr_misses::total         1184                       # number of overall MSHR misses
system.cpu.icache.demand_mshr_miss_latency::.cpu.inst     68980500                       # number of demand (read+write) MSHR miss cycles
system.cpu.icache.demand_mshr_miss_latency::total     68980500                       # number of demand (read+write) MSHR miss cycles
system.cpu.icache.overall_mshr_miss_latency::.cpu.inst     68980500                       # number of overall MSHR miss cycles
system.cpu.icache.overall_mshr_miss_latency::total     68980500                       # number of overall MSHR miss cycles
system.cpu.icache.demand_mshr_miss_rate::.cpu.inst     0.000021                       # mshr miss rate for demand accesses
system.cpu.icache.demand_mshr_miss_rate::total     0.000021                       # mshr miss rate for demand accesses
system.cpu.icache.overall_mshr_miss_rate::.cpu.inst     0.000021                       # mshr miss rate for overall accesses
system.cpu.icache.overall_mshr_miss_rate::total     0.000021                       # mshr miss rate for overall accesses
system.cpu.icache.demand_avg_mshr_miss_latency::.cpu.inst 58260.557432                       # average overall mshr miss latency
system.cpu.icache.demand_avg_mshr_miss_latency::total 58260.557432                       # average overall mshr miss latency
system.cpu.icache.overall_avg_mshr_miss_latency::.cpu.inst 58260.557432                       # average overall mshr miss latency
system.cpu.icache.overall_avg_mshr_miss_latency::total 58260.557432                       # average overall mshr miss latency
system.cpu.icache.replacements                   1056                       # number of replacements
system.cpu.icache.ReadReq_hits::.cpu.inst     57536961                       # number of ReadReq hits
system.cpu.icache.ReadReq_hits::total        57536961                       # number of ReadReq hits
system.cpu.icache.ReadReq_misses::.cpu.inst         1184                       # number of ReadReq misses
system.cpu.icache.ReadReq_misses::total          1184                       # number of ReadReq misses
system.cpu.icache.ReadReq_miss_latency::.cpu.inst     70164500                       # number of ReadReq miss cycles
system.cpu.icache.ReadReq_miss_latency::total     70164500                       # number of ReadReq miss cycles
system.cpu.icache.ReadReq_accesses::.cpu.inst     57538145                       # number of ReadReq accesses(hits+misses)
system.cpu.icache.ReadReq_accesses::total     57538145                       # number of ReadReq accesses(hits+misses)
system.cpu.icache.ReadReq_miss_rate::.cpu.inst     0.000021                       # miss rate for ReadReq accesses
system.cpu.icache.ReadReq_miss_rate::total     0.000021                       # miss rate for ReadReq accesses
system.cpu.icache.ReadReq_avg_miss_latency::.cpu.inst 59260.557432                       # average ReadReq miss latency
system.cpu.icache.ReadReq_avg_miss_latency::total 59260.557432                       # average ReadReq miss latency
system.cpu.icache.ReadReq_mshr_misses::.cpu.inst         1184                       # number of ReadReq MSHR misses
system.cpu.icache.ReadReq_mshr_misses::total         1184                       # number of ReadReq MSHR misses
system.cpu.icache.ReadReq_mshr_miss_latency::.cpu.inst     68980500                       # number of ReadReq MSHR miss cycles
system.cpu.icache.ReadReq_mshr_miss_latency::total     68980500                       # number of ReadReq MSHR miss cycles
system.cpu.icache.ReadReq_mshr_miss_rate::.cpu.inst     0.000021                       # mshr miss rate for ReadReq accesses
system.cpu.icache.ReadReq_mshr_miss_rate::total     0.000021                       # mshr miss rate for ReadReq accesses
system.cpu.icache.ReadReq_avg_mshr_miss_latency::.cpu.inst 58260.557432                       # average ReadReq mshr miss latency
system.cpu.icache.ReadReq_avg_mshr_miss_latency::total 58260.557432                       # average ReadReq mshr miss latency
system.cpu.icache.tags.pwrStateResidencyTicks::UNDEFINED  87039929000                       # Cumulative time (in ticks) in various power states
system.cpu.icache.tags.tagsinuse           127.986646                       # Cycle average of tags in use
system.cpu.icache.tags.total_refs            57538145                       # Total number of references to valid blocks.
system.cpu.icache.tags.sampled_refs              1184                       # Sample count of references to valid blocks.
system.cpu.icache.tags.avg_refs          48596.406250                       # Average number of references to valid blocks.
system.cpu.icache.tags.warmup_cycle             77000                       # Cycle when the warmup percentage was hit.
system.cpu.icache.tags.occ_blocks::.cpu.inst   127.986646                       # Average occupied blocks per requestor
system.cpu.icache.tags.occ_percent::.cpu.inst     0.999896                       # Average percentage of cache occupancy
system.cpu.icache.tags.occ_percent::total     0.999896                       # Average percentage of cache occupancy
system.cpu.icache.tags.occ_task_id_blocks::1024          128                       # Occupied blocks per task id
system.cpu.icache.tags.age_task_id_blocks_1024::0           87                       # Occupied blocks per task id
system.cpu.icache.tags.age_task_id_blocks_1024::1           41                       # Occupied blocks per task id
system.cpu.icache.tags.occ_task_id_percent::1024            1                       # Percentage of cache occupancy per task id
system.cpu.icache.tags.tag_accesses         115077474                       # Number of tag accesses
system.cpu.icache.tags.data_accesses        115077474                       # Number of data accesses
system.cpu.dtb.walker.pwrStateResidencyTicks::UNDEFINED  87039929000                       # Cumulative time (in ticks) in various power states
system.cpu.interrupts.clk_domain.clock           8000                       # Clock period in ticks
system.cpu.itb_walker_cache.pwrStateResidencyTicks::UNDEFINED  87039929000                       # Cumulative time (in ticks) in various power states
system.cpu.itb_walker_cache.blocked_cycles::no_mshrs            0                       # number of cycles access was blocked
system.cpu.itb_walker_cache.blocked_cycles::no_targets            0                       # number of cycles access was blocked
system.cpu.itb_walker_cache.blocked::no_mshrs            0                       # number of cycles access was blocked
system.cpu.itb_walker_cache.blocked::no_targets            0                       # number of cycles access was blocked
system.cpu.itb_walker_cache.avg_blocked_cycles::no_mshrs          nan                       # average number of cycles each access was blocked
system.cpu.itb_walker_cache.avg_blocked_cycles::no_targets          nan                       # average number of cycles each access was blocked
system.cpu.itb_walker_cache.replacements            0                       # number of replacements
system.cpu.itb_walker_cache.tags.pwrStateResidencyTicks::UNDEFINED  87039929000                       # Cumulative time (in ticks) in various power states
system.cpu.itb_walker_cache.tags.tagsinuse            0                       # Cycle average of tags in use
system.cpu.itb_walker_cache.tags.total_refs            0                       # Total number of references to valid blocks.
system.cpu.itb_walker_cache.tags.sampled_refs            0                       # Sample count of references to valid blocks.
system.cpu.itb_walker_cache.tags.avg_refs          nan                       # Average number of references to valid blocks.
system.cpu.itb_walker_cache.tags.warmup_cycle            0                       # Cycle when the warmup percentage was hit.
system.cpu.itb_walker_cache.tags.tag_accesses            0                       # Number of tag accesses
system.cpu.itb_walker_cache.tags.data_accesses            0                       # Number of data accesses
system.cpu.itb.walker.pwrStateResidencyTicks::UNDEFINED  87039929000                       # Cumulative time (in ticks) in various power states
system.cpu.dtb_walker_cache.pwrStateResidencyTicks::UNDEFINED  87039929000                       # Cumulative time (in ticks) in various power states
system.cpu.dtb_walker_cache.blocked_cycles::no_mshrs            0                       # number of cycles access was blocked
system.cpu.dtb_walker_cache.blocked_cycles::no_targets            0                       # number of cycles access was blocked
system.cpu.dtb_walker_cache.blocked::no_mshrs            0                       # number of cycles access was blocked
system.cpu.dtb_walker_cache.blocked::no_targets            0                       # number of cycles access was blocked
system.cpu.dtb_walker_cache.avg_blocked_cycles::no_mshrs          nan                       # average number of cycles each access was blocked
system.cpu.dtb_walker_cache.avg_blocked_cycles::no_targets          nan                       # average number of cycles each access was blocked
system.cpu.dtb_walker_cache.replacements            0                       # number of replacements
system.cpu.dtb_walker_cache.tags.pwrStateResidencyTicks::UNDEFINED  87039929000                       # Cumulative time (in ticks) in various power states
system.cpu.dtb_walker_cache.tags.tagsinuse            0                       # Cycle average of tags in use
system.cpu.dtb_walker_cache.tags.total_refs            0                       # Total number of references to valid blocks.
system.cpu.dtb_walker_cache.tags.sampled_refs            0                       # Sample count of references to valid blocks.
system.cpu.dtb_walker_cache.tags.avg_refs          nan                       # Average number of references to valid blocks.
system.cpu.dtb_walker_cache.tags.warmup_cycle            0                       # Cycle when the warmup percentage was hit.
system.cpu.dtb_walker_cache.tags.tag_accesses            0                       # Number of tag accesses
system.cpu.dtb_walker_cache.tags.data_accesses            0                       # Number of data accesses
system.cpu.dcache.pwrStateResidencyTicks::UNDEFINED  87039929000                       # Cumulative time (in ticks) in various power states
system.cpu.dcache.demand_hits::.cpu.data     18987367                       # number of demand (read+write) hits
system.cpu.dcache.demand_hits::total         18987367                       # number of demand (read+write) hits
system.cpu.dcache.overall_hits::.cpu.data     18987367                       # number of overall hits
system.cpu.dcache.overall_hits::total        18987367                       # number of overall hits
system.cpu.dcache.demand_misses::.cpu.data       192893                       # number of demand (read+write) misses
system.cpu.dcache.demand_misses::total         192893                       # number of demand (read+write) misses
system.cpu.dcache.overall_misses::.cpu.data       192893                       # number of overall misses
system.cpu.dcache.overall_misses::total        192893                       # number of overall misses
system.cpu.dcache.demand_miss_latency::.cpu.data  10444182500                       # number of demand (read+write) miss cycles
system.cpu.dcache.demand_miss_latency::total  10444182500                       # number of demand (read+write) miss cycles
system.cpu.dcache.overall_miss_latency::.cpu.data  10444182500                       # number of overall miss cycles
system.cpu.dcache.overall_miss_latency::total  10444182500                       # number of overall miss cycles
system.cpu.dcache.demand_accesses::.cpu.data     19180260                       # number of demand (read+write) accesses
system.cpu.dcache.demand_accesses::total     19180260                       # number of demand (read+write) accesses
system.cpu.dcache.overall_accesses::.cpu.data     19180260                       # number of overall (read+write) accesses
system.cpu.dcache.overall_accesses::total     19180260                       # number of overall (read+write) accesses
system.cpu.dcache.demand_miss_rate::.cpu.data     0.010057                       # miss rate for demand accesses
system.cpu.dcache.demand_miss_rate::total     0.010057                       # miss rate for demand accesses
system.cpu.dcache.overall_miss_rate::.cpu.data     0.010057                       # miss rate for overall accesses
system.cpu.dcache.overall_miss_rate::total     0.010057                       # miss rate for overall accesses
system.cpu.dcache.demand_avg_miss_latency::.cpu.data 54144.953420                       # average overall miss latency
system.cpu.dcache.demand_avg_miss_latency::total 54144.953420                       # average overall miss latency
system.cpu.dcache.overall_avg_miss_latency::.cpu.data 54144.953420                       # average overall miss latency
system.cpu.dcache.overall_avg_miss_latency::total 54144.953420                       # average overall miss latency
system.cpu.dcache.blocked_cycles::no_mshrs            0                       # number of cycles access was blocked
system.cpu.dcache.blocked_cycles::no_targets            0                       # number of cycles access was blocked
system.cpu.dcache.blocked::no_mshrs                 0                       # number of cycles access was blocked
system.cpu.dcache.blocked::no_targets               0                       # number of cycles access was blocked
system.cpu.dcache.avg_blocked_cycles::no_mshrs          nan                       # average number of cycles each access was blocked
system.cpu.dcache.avg_blocked_cycles::no_targets          nan                       # average number of cycles each access was blocked
system.cpu.dcache.writebacks::.writebacks        33085                       # number of writebacks
system.cpu.dcache.writebacks::total             33085                       # number of writebacks
system.cpu.dcache.demand_mshr_misses::.cpu.data       192893                       # number of demand (read+write) MSHR misses
system.cpu.dcache.demand_mshr_misses::total       192893                       # number of demand (read+write) MSHR misses
system.cpu.dcache.overall_mshr_misses::.cpu.data       192893                       # number of overall MSHR misses
system.cpu.dcache.overall_mshr_misses::total       192893                       # number of overall MSHR misses
system.cpu.dcache.demand_mshr_miss_latency::.cpu.data  10251289500                       # number of demand (read+write) MSHR miss cycles
system.cpu.dcache.demand_mshr_miss_latency::total  10251289500                       # number of demand (read+write) MSHR miss cycles
system.cpu.dcache.overall_mshr_miss_latency::.cpu.data  10251289500                       # number of overall MSHR miss cycles
system.cpu.dcache.overall_mshr_miss_latency::total  10251289500                       # number of overall MSHR miss cycles
system.cpu.dcache.demand_mshr_miss_rate::.cpu.data     0.010057                       # mshr miss rate for demand accesses
system.cpu.dcache.demand_mshr_miss_rate::total     0.010057                       # mshr miss rate for demand accesses
system.cpu.dcache.overall_mshr_miss_rate::.cpu.data     0.010057                       # mshr miss rate for overall accesses
system.cpu.dcache.overall_mshr_miss_rate::total     0.010057                       # mshr miss rate for overall accesses
system.cpu.dcache.demand_avg_mshr_miss_latency::.cpu.data 53144.953420                       # average overall mshr miss latency
system.cpu.dcache.demand_avg_mshr_miss_latency::total 53144.953420                       # average overall mshr miss latency
system.cpu.dcache.overall_avg_mshr_miss_latency::.cpu.data 53144.953420                       # average overall mshr miss latency
system.cpu.dcache.overall_avg_mshr_miss_latency::total 53144.953420                       # average overall mshr miss latency
system.cpu.dcache.replacements                 192765                       # number of replacements
system.cpu.dcache.ReadReq_hits::.cpu.data     13506321                       # number of ReadReq hits
system.cpu.dcache.ReadReq_hits::total        13506321                       # number of ReadReq hits
system.cpu.dcache.ReadReq_misses::.cpu.data       192106                       # number of ReadReq misses
system.cpu.dcache.ReadReq_misses::total        192106                       # number of ReadReq misses
system.cpu.dcache.ReadReq_miss_latency::.cpu.data  10411455000                       # number of ReadReq miss cycles
system.cpu.dcache.ReadReq_miss_latency::total  10411455000                       # number of ReadReq miss cycles
system.cpu.dcache.ReadReq_accesses::.cpu.data     13698427                       # number of ReadReq accesses(hits+misses)
system.cpu.dcache.ReadReq_accesses::total     13698427                       # number of ReadReq accesses(hits+misses)
system.cpu.dcache.ReadReq_miss_rate::.cpu.data     0.014024                       # miss rate for ReadReq accesses
system.cpu.dcache.ReadReq_miss_rate::total     0.014024                       # miss rate for ReadReq accesses
system.cpu.dcache.ReadReq_avg_miss_latency::.cpu.data 54196.407192                       # average ReadReq miss latency
system.cpu.dcache.ReadReq_avg_miss_latency::total 54196.407192                       # average ReadReq miss latency
system.cpu.dcache.ReadReq_mshr_misses::.cpu.data       192106                       # number of ReadReq MSHR misses
system.cpu.dcache.ReadReq_mshr_misses::total       192106                       # number of ReadReq MSHR misses
system.cpu.dcache.ReadReq_mshr_miss_latency::.cpu.data  10219349000                       # number of ReadReq MSHR miss cycles
system.cpu.dcache.ReadReq_mshr_miss_latency::total  10219349000                       # number of ReadReq MSHR miss cycles
system.cpu.dcache.ReadReq_mshr_miss_rate::.cpu.data     0.014024                       # mshr miss rate for ReadReq accesses
system.cpu.dcache.ReadReq_mshr_miss_rate::total     0.014024                       # mshr miss rate for ReadReq accesses
system.cpu.dcache.ReadReq_avg_mshr_miss_latency::.cpu.data 53196.407192                       # average ReadReq mshr miss latency
system.cpu.dcache.ReadReq_avg_mshr_miss_latency::total 53196.407192                       # average ReadReq mshr miss latency
system.cpu.dcache.WriteReq_hits::.cpu.data      5481046                       # number of WriteReq hits
system.cpu.dcache.WriteReq_hits::total        5481046                       # number of WriteReq hits
system.cpu.dcache.WriteReq_misses::.cpu.data          787                       # number of WriteReq misses
system.cpu.dcache.WriteReq_misses::total          787                       # number of WriteReq misses
system.cpu.dcache.WriteReq_miss_latency::.cpu.data     32727500                       # number of WriteReq miss cycles
system.cpu.dcache.WriteReq_miss_latency::total     32727500                       # number of WriteReq miss cycles
system.cpu.dcache.WriteReq_accesses::.cpu.data      5481833                       # number of WriteReq accesses(hits+misses)
system.cpu.dcache.WriteReq_accesses::total      5481833                       # number of WriteReq accesses(hits+misses)
system.cpu.dcache.WriteReq_miss_rate::.cpu.data     0.000144                       # miss rate for WriteReq accesses
system.cpu.dcache.WriteReq_miss_rate::total     0.000144                       # miss rate for WriteReq accesses
system.cpu.dcache.WriteReq_avg_miss_latency::.cpu.data 41585.133418                       # average WriteReq miss latency
system.cpu.dcache.WriteReq_avg_miss_latency::total 41585.133418                       # average WriteReq miss latency
system.cpu.dcache.WriteReq_mshr_misses::.cpu.data          787                       # number of WriteReq MSHR misses
system.cpu.dcache.WriteReq_mshr_misses::total          787                       # number of WriteReq MSHR misses
system.cpu.dcache.WriteReq_mshr_miss_latency::.cpu.data     31940500                       # number of WriteReq MSHR miss cycles
system.cpu.dcache.WriteReq_mshr_miss_latency::total     31940500                       # number of WriteReq MSHR miss cycles
system.cpu.dcache.WriteReq_mshr_miss_rate::.cpu.data     0.000144                       # mshr miss rate for WriteReq accesses
system.cpu.dcache.WriteReq_mshr_miss_rate::total     0.000144                       # mshr miss rate for WriteReq accesses
system.cpu.dcache.WriteReq_avg_mshr_miss_latency::.cpu.data 40585.133418                       # average WriteReq mshr miss latency
system.cpu.dcache.WriteReq_avg_mshr_miss_latency::total 40585.133418                       # average WriteReq mshr miss latency
system.cpu.dcache.tags.pwrStateResidencyTicks::UNDEFINED  87039929000                       # Cumulative time (in ticks) in various power states
system.cpu.dcache.tags.tagsinuse           127.978734                       # Cycle average of tags in use
system.cpu.dcache.tags.total_refs            19180260                       # Total number of references to valid blocks.
system.cpu.dcache.tags.sampled_refs            192893                       # Sample count of references to valid blocks.
system.cpu.dcache.tags.avg_refs             99.434713                       # Average number of references to valid blocks.
system.cpu.dcache.tags.warmup_cycle            146000                       # Cycle when the warmup percentage was hit.
system.cpu.dcache.tags.occ_blocks::.cpu.data   127.978734                       # Average occupied blocks per requestor
system.cpu.dcache.tags.occ_percent::.cpu.data     0.999834                       # Average percentage of cache occupancy
system.cpu.dcache.tags.occ_percent::total     0.999834                       # Average percentage of cache occupancy
system.cpu.dcache.tags.occ_task_id_blocks::1024          128                       # Occupied blocks per task id
system.cpu.dcache.tags.age_task_id_blocks_1024::0           35                       # Occupied blocks per task id
system.cpu.dcache.tags.age_task_id_blocks_1024::1           66                       # Occupied blocks per task id
system.cpu.dcache.tags.age_task_id_blocks_1024::2           27                       # Occupied blocks per task id
system.cpu.dcache.tags.occ_task_id_percent::1024            1                       # Percentage of cache occupancy per task id
system.cpu.dcache.tags.tag_accesses          19373153                       # Number of tag accesses
system.cpu.dcache.tags.data_accesses         19373153                       # Number of data accesses

---------- End Simulation Statistics   ----------
