
---------- Begin Simulation Statistics ----------
final_tick                                76960658000                       # Number of ticks from beginning of simulation (restored from checkpoints and never reset)
host_inst_rate                                  55439                       # Simulator instruction rate (inst/s)
host_mem_usage                                 682308                       # Number of bytes of host memory used
host_op_rate                                    92953                       # Simulator op (including micro ops) rate (op/s)
host_seconds                                   840.14                       # Real time elapsed on the host
host_tick_rate                               91604968                       # Simulator tick rate (ticks/s)
sim_freq                                 1000000000000                       # Frequency of simulated ticks
sim_insts                                    46576534                       # Number of instructions simulated
sim_ops                                      78093026                       # Number of ops (including micro ops) simulated
sim_seconds                                  0.076961                       # Number of seconds simulated
sim_ticks                                 76960658000                       # Number of ticks simulated
system.cpu.Branches                           6851974                       # Number of branches fetched
system.cpu.committedInsts                    46576534                       # Number of instructions committed
system.cpu.committedOps                      78093026                       # Number of ops (including micro ops) committed
system.cpu.dtb.rdAccesses                    13698439                       # TLB accesses on read requests
system.cpu.dtb.rdMisses                            13                       # TLB misses on read requests
system.cpu.dtb.wrAccesses                     5481836                       # TLB accesses on write requests
system.cpu.dtb.wrMisses                             9                       # TLB misses on write requests
system.cpu.idle_fraction                     0.000000                       # Percentage of idle cycles
system.cpu.itb.rdAccesses                           0                       # TLB accesses on read requests
system.cpu.itb.rdMisses                             0                       # TLB misses on read requests
system.cpu.itb.wrAccesses                    57538145                       # TLB accesses on write requests
system.cpu.itb.wrMisses                            48                       # TLB misses on write requests
system.cpu.not_idle_fraction                 1.000000                       # Percentage of non-idle cycles
system.cpu.numCycles                        153921316                       # number of cpu cycles simulated
system.cpu.numWorkItemsCompleted                    0                       # number of work items this cpu completed
system.cpu.numWorkItemsStarted                      0                       # number of work items this cpu started
system.cpu.num_busy_cycles               153921315.998000                       # Number of busy cycles
system.cpu.num_cc_register_reads             26041561                       # number of times the CC registers were read
system.cpu.num_cc_register_writes            16446004                       # number of times the CC registers were written
system.cpu.num_conditional_control_insts      4112122                       # number of instructions that are conditional controls
system.cpu.num_fp_alu_accesses                   2071                       # Number of float alu accesses
system.cpu.num_fp_insts                          2071                       # number of float instructions
system.cpu.num_fp_register_reads                 3981                       # number of times the floating registers were read
system.cpu.num_fp_register_writes                1590                       # number of times the floating registers were written
system.cpu.num_func_calls                     2739154                       # number of times a function call or return occured
system.cpu.num_idle_cycles                   0.002000                       # Number of idle cycles
system.cpu.num_int_alu_accesses              78091217                       # Number of integer alu accesses
system.cpu.num_int_insts                     78091217                       # number of integer instructions
system.cpu.num_int_register_reads           178083162                       # number of times the integer registers were read
system.cpu.num_int_register_writes           65757491                       # number of times the integer registers were written
system.cpu.num_load_insts                    13698419                       # Number of load instructions
system.cpu.num_mem_refs                      19180250                       # number of memory refs
system.cpu.num_store_insts                    5481831                       # Number of store instructions
system.cpu.num_vec_alu_accesses                     0                       # Number of vector alu accesses
system.cpu.num_vec_insts                            0                       # number of vector instructions
system.cpu.num_vec_register_reads                   0                       # number of times the vector registers were read
system.cpu.num_vec_register_writes                  0                       # number of times the vector registers were written
system.cpu.op_class::No_OpClass                   114      0.00%      0.00% # Class of executed instruction
system.cpu.op_class::IntAlu                  58911567     75.44%     75.44% # Class of executed instruction
system.cpu.op_class::IntMult                       11      0.00%     75.44% # Class of executed instruction
system.cpu.op_class::IntDiv                        28      0.00%     75.44% # Class of executed instruction
system.cpu.op_class::FloatAdd                      14      0.00%     75.44% # Class of executed instruction
system.cpu.op_class::FloatCmp                       0      0.00%     75.44% # Class of executed instruction
system.cpu.op_class::FloatCvt                       0      0.00%     75.44% # Class of executed instruction
system.cpu.op_class::FloatMult                      0      0.00%     75.44% # Class of executed instruction
system.cpu.op_class::FloatMultAcc                   0      0.00%     75.44% # Class of executed instruction
system.cpu.op_class::FloatDiv                       0      0.00%     75.44% # Class of executed instruction
system.cpu.op_class::FloatMisc                      0      0.00%     75.44% # Class of executed instruction
system.cpu.op_class::FloatSqrt                      0      0.00%     75.44% # Class of executed instruction
system.cpu.op_class::SimdAdd                      374      0.00%     75.44% # Class of executed instruction
system.cpu.op_class::SimdAddAcc                     0      0.00%     75.44% # Class of executed instruction
system.cpu.op_class::SimdAlu                       92      0.00%     75.44% # Class of executed instruction
system.cpu.op_class::SimdCmp                        0      0.00%     75.44% # Class of executed instruction
system.cpu.op_class::SimdCvt                      132      0.00%     75.44% # Class of executed instruction
system.cpu.op_class::SimdMisc                     258      0.00%     75.44% # Class of executed instruction
system.cpu.op_class::SimdMult                       0      0.00%     75.44% # Class of executed instruction
system.cpu.op_class::SimdMultAcc                    0      0.00%     75.44% # Class of executed instruction
system.cpu.op_class::SimdShift                    186      0.00%     75.44% # Class of executed instruction
system.cpu.op_class::SimdShiftAcc                   0      0.00%     75.44% # Class of executed instruction
system.cpu.op_class::SimdDiv                        0      0.00%     75.44% # Class of executed instruction
system.cpu.op_class::SimdSqrt                       0      0.00%     75.44% # Class of executed instruction
system.cpu.op_class::SimdFloatAdd                   0      0.00%     75.44% # Class of executed instruction
system.cpu.op_class::SimdFloatAlu                   0      0.00%     75.44% # Class of executed instruction
system.cpu.op_class::SimdFloatCmp                   0      0.00%     75.44% # Class of executed instruction
system.cpu.op_class::SimdFloatCvt                   0      0.00%     75.44% # Class of executed instruction
system.cpu.op_class::SimdFloatDiv                   0      0.00%     75.44% # Class of executed instruction
system.cpu.op_class::SimdFloatMisc                  0      0.00%     75.44% # Class of executed instruction
system.cpu.op_class::SimdFloatMult                  0      0.00%     75.44% # Class of executed instruction
system.cpu.op_class::SimdFloatMultAcc               0      0.00%     75.44% # Class of executed instruction
system.cpu.op_class::SimdFloatSqrt                  0      0.00%     75.44% # Class of executed instruction
system.cpu.op_class::SimdReduceAdd                  0      0.00%     75.44% # Class of executed instruction
system.cpu.op_class::SimdReduceAlu                  0      0.00%     75.44% # Class of executed instruction
system.cpu.op_class::SimdReduceCmp                  0      0.00%     75.44% # Class of executed instruction
system.cpu.op_class::SimdFloatReduceAdd             0      0.00%     75.44% # Class of executed instruction
system.cpu.op_class::SimdFloatReduceCmp             0      0.00%     75.44% # Class of executed instruction
system.cpu.op_class::SimdAes                        0      0.00%     75.44% # Class of executed instruction
system.cpu.op_class::SimdAesMix                     0      0.00%     75.44% # Class of executed instruction
system.cpu.op_class::SimdSha1Hash                   0      0.00%     75.44% # Class of executed instruction
system.cpu.op_class::SimdSha1Hash2                  0      0.00%     75.44% # Class of executed instruction
system.cpu.op_class::SimdSha256Hash                 0      0.00%     75.44% # Class of executed instruction
system.cpu.op_class::SimdSha256Hash2                0      0.00%     75.44% # Class of executed instruction
system.cpu.op_class::SimdShaSigma2                  0      0.00%     75.44% # Class of executed instruction
system.cpu.op_class::SimdShaSigma3                  0      0.00%     75.44% # Class of executed instruction
system.cpu.op_class::SimdPredAlu                    0      0.00%     75.44% # Class of executed instruction
system.cpu.op_class::MemRead                 13698345     17.54%     92.98% # Class of executed instruction
system.cpu.op_class::MemWrite                 5481414      7.02%    100.00% # Class of executed instruction
system.cpu.op_class::FloatMemRead                  74      0.00%    100.00% # Class of executed instruction
system.cpu.op_class::FloatMemWrite                417      0.00%    100.00% # Class of executed instruction
system.cpu.op_class::IprAccess                      0      0.00%    100.00% # Class of executed instruction
system.cpu.op_class::InstPrefetch                   0      0.00%    100.00% # Class of executed instruction
system.cpu.op_class::total                   78093026                       # Class of executed instruction
system.cpu.workload.numSyscalls                   184                       # Number of system calls
system.membus.snoop_filter.hit_multi_requests            0                       # Number of requests hitting in the snoop filter with multiple (>1) holders of the requested data.
system.membus.snoop_filter.hit_multi_snoops            0                       # Number of snoops hitting in the snoop filter with multiple (>1) holders of the requested data.
system.membus.snoop_filter.hit_single_requests         1820                       # Number of requests hitting in the snoop filter with a single holder of the requested data.
system.membus.snoop_filter.hit_single_snoops            0                       # Number of snoops hitting in the snoop filter with a single holder of the requested data.
system.membus.snoop_filter.tot_requests          5525                       # Total number of requests made to the snoop filter.
system.membus.snoop_filter.tot_snoops               0                       # Total number of snoops made to the snoop filter.
system.membus.pwrStateResidencyTicks::UNDEFINED  76960658000                       # Cumulative time (in ticks) in various power states
system.membus.trans_dist::ReadResp               3247                       # Transaction distribution
system.membus.trans_dist::WritebackDirty          257                       # Transaction distribution
system.membus.trans_dist::WritebackClean          696                       # Transaction distribution
system.membus.trans_dist::CleanEvict              867                       # Transaction distribution
system.membus.trans_dist::ReadExReq               458                       # Transaction distribution
system.membus.trans_dist::ReadExResp              458                       # Transaction distribution
system.membus.trans_dist::ReadCleanReq           1635                       # Transaction distribution
system.membus.trans_dist::ReadSharedReq          1612                       # Transaction distribution
system.membus.pkt_count_system.cpu.icache.mem_side::system.mem_ctrls.port         3966                       # Packet count per connected master and slave (bytes)
system.membus.pkt_count_system.cpu.icache.mem_side::total         3966                       # Packet count per connected master and slave (bytes)
system.membus.pkt_count_system.cpu.dcache.mem_side::system.mem_ctrls.port         5264                       # Packet count per connected master and slave (bytes)
system.membus.pkt_count_system.cpu.dcache.mem_side::total         5264                       # Packet count per connected master and slave (bytes)
system.membus.pkt_count::total                   9230                       # Packet count per connected master and slave (bytes)
system.membus.pkt_size_system.cpu.icache.mem_side::system.mem_ctrls.port        37296                       # Cumulative packet size per connected master and slave (bytes)
system.membus.pkt_size_system.cpu.icache.mem_side::total        37296                       # Cumulative packet size per connected master and slave (bytes)
system.membus.pkt_size_system.cpu.dcache.mem_side::system.mem_ctrls.port        37232                       # Cumulative packet size per connected master and slave (bytes)
system.membus.pkt_size_system.cpu.dcache.mem_side::total        37232                       # Cumulative packet size per connected master and slave (bytes)
system.membus.pkt_size::total                   74528                       # Cumulative packet size per connected master and slave (bytes)
system.membus.snoops                                0                       # Total snoops (count)
system.membus.snoopTraffic                          0                       # Total snoop traffic (bytes)
system.membus.snoop_fanout::samples              3705                       # Request fanout histogram
system.membus.snoop_fanout::mean                    0                       # Request fanout histogram
system.membus.snoop_fanout::stdev                   0                       # Request fanout histogram
system.membus.snoop_fanout::underflows              0      0.00%      0.00% # Request fanout histogram
system.membus.snoop_fanout::0                    3705    100.00%    100.00% # Request fanout histogram
system.membus.snoop_fanout::1                       0      0.00%    100.00% # Request fanout histogram
system.membus.snoop_fanout::2                       0      0.00%    100.00% # Request fanout histogram
system.membus.snoop_fanout::3                       0      0.00%    100.00% # Request fanout histogram
system.membus.snoop_fanout::4                       0      0.00%    100.00% # Request fanout histogram
system.membus.snoop_fanout::overflows               0      0.00%    100.00% # Request fanout histogram
system.membus.snoop_fanout::min_value               0                       # Request fanout histogram
system.membus.snoop_fanout::max_value               0                       # Request fanout histogram
system.membus.snoop_fanout::total                3705                       # Request fanout histogram
system.membus.reqLayer2.occupancy             6483000                       # Layer occupancy (ticks)
system.membus.reqLayer2.utilization               0.0                       # Layer utilization (%)
system.membus.respLayer1.occupancy            3748750                       # Layer occupancy (ticks)
system.membus.respLayer1.utilization              0.0                       # Layer utilization (%)
system.membus.respLayer2.occupancy            4782500                       # Layer occupancy (ticks)
system.membus.respLayer2.utilization              0.0                       # Layer utilization (%)
system.voltage_domain.voltage                       1                       # Voltage in Volts
system.clk_domain.clock                          1000                       # Clock period in ticks
system.cpu_voltage_domain.voltage                   1                       # Voltage in Volts
system.mem_ctrls.pwrStateResidencyTicks::UNDEFINED  76960658000                       # Cumulative time (in ticks) in various power states
system.mem_ctrls.bytes_read::.cpu.inst          26160                       # Number of bytes read from this memory
system.mem_ctrls.bytes_read::.cpu.data          33120                       # Number of bytes read from this memory
system.mem_ctrls.bytes_read::total              59280                       # Number of bytes read from this memory
system.mem_ctrls.bytes_inst_read::.cpu.inst        26160                       # Number of instructions bytes read from this memory
system.mem_ctrls.bytes_inst_read::total         26160                       # Number of instructions bytes read from this memory
system.mem_ctrls.bytes_written::.writebacks         4112                       # Number of bytes written to this memory
system.mem_ctrls.bytes_written::total            4112                       # Number of bytes written to this memory
system.mem_ctrls.num_reads::.cpu.inst            1635                       # Number of read requests responded to by this memory
system.mem_ctrls.num_reads::.cpu.data            2070                       # Number of read requests responded to by this memory
system.mem_ctrls.num_reads::total                3705                       # Number of read requests responded to by this memory
system.mem_ctrls.num_writes::.writebacks          257                       # Number of write requests responded to by this memory
system.mem_ctrls.num_writes::total                257                       # Number of write requests responded to by this memory
system.mem_ctrls.bw_read::.cpu.inst            339914                       # Total read bandwidth from this memory (bytes/s)
system.mem_ctrls.bw_read::.cpu.data            430350                       # Total read bandwidth from this memory (bytes/s)
system.mem_ctrls.bw_read::total                770264                       # Total read bandwidth from this memory (bytes/s)
system.mem_ctrls.bw_inst_read::.cpu.inst       339914                       # Instruction read bandwidth from this memory (bytes/s)
system.mem_ctrls.bw_inst_read::total           339914                       # Instruction read bandwidth from this memory (bytes/s)
system.mem_ctrls.bw_write::.writebacks          53430                       # Write bandwidth from this memory (bytes/s)
system.mem_ctrls.bw_write::total                53430                       # Write bandwidth from this memory (bytes/s)
system.mem_ctrls.bw_total::.writebacks          53430                       # Total bandwidth to/from this memory (bytes/s)
system.mem_ctrls.bw_total::.cpu.inst           339914                       # Total bandwidth to/from this memory (bytes/s)
system.mem_ctrls.bw_total::.cpu.data           430350                       # Total bandwidth to/from this memory (bytes/s)
system.mem_ctrls.bw_total::total               823694                       # Total bandwidth to/from this memory (bytes/s)
system.mem_ctrls.avgPriority_.writebacks::samples       556.00                       # Average QoS priority value for accepted requests
system.mem_ctrls.avgPriority_.cpu.inst::samples      1626.00                       # Average QoS priority value for accepted requests
system.mem_ctrls.avgPriority_.cpu.data::samples      2060.00                       # Average QoS priority value for accepted requests
system.mem_ctrls.priorityMinLatency      0.000000018750                       # per QoS priority minimum request to response latency (s)
system.mem_ctrls.priorityMaxLatency      0.153513451750                       # per QoS priority maximum request to response latency (s)
system.mem_ctrls.numReadWriteTurnArounds           33                       # Number of turnarounds from READ to WRITE
system.mem_ctrls.numWriteReadTurnArounds           33                       # Number of turnarounds from WRITE to READ
system.mem_ctrls.numStayReadState               28061                       # Number of times bus staying in READ state
system.mem_ctrls.numStayWriteState                506                       # Number of times bus staying in WRITE state
system.mem_ctrls.readReqs                        3705                       # Number of read requests accepted
system.mem_ctrls.writeReqs                        953                       # Number of write requests accepted
system.mem_ctrls.readBursts                      3705                       # Number of DRAM read bursts, including those serviced by the write queue
system.mem_ctrls.writeBursts                      953                       # Number of DRAM write bursts, including those merged in the write queue
system.mem_ctrls.servicedByWrQ                     19                       # Number of DRAM read bursts serviced by the write queue
system.mem_ctrls.mergedWrBursts                   397                       # Number of DRAM write bursts merged with an existing one
system.mem_ctrls.neitherReadNorWriteReqs            0                       # Number of requests that are neither read nor write
system.mem_ctrls.perBankRdBursts::0               456                       # Per bank write bursts
system.mem_ctrls.perBankRdBursts::1               258                       # Per bank write bursts
system.mem_ctrls.perBankRdBursts::2               849                       # Per bank write bursts
system.mem_ctrls.perBankRdBursts::3                15                       # Per bank write bursts
system.mem_ctrls.perBankRdBursts::4                29                       # Per bank write bursts
system.mem_ctrls.perBankRdBursts::5                13                       # Per bank write bursts
system.mem_ctrls.perBankRdBursts::6               177                       # Per bank write bursts
system.mem_ctrls.perBankRdBursts::7               113                       # Per bank write bursts
system.mem_ctrls.perBankRdBursts::8                51                       # Per bank write bursts
system.mem_ctrls.perBankRdBursts::9                65                       # Per bank write bursts
system.mem_ctrls.perBankRdBursts::10              144                       # Per bank write bursts
system.mem_ctrls.perBankRdBursts::11              237                       # Per bank write bursts
system.mem_ctrls.perBankRdBursts::12               82                       # Per bank write bursts
system.mem_ctrls.perBankRdBursts::13              435                       # Per bank write bursts
system.mem_ctrls.perBankRdBursts::14              552                       # Per bank write bursts
system.mem_ctrls.perBankRdBursts::15              210                       # Per bank write bursts
system.mem_ctrls.perBankWrBursts::0                84                       # Per bank write bursts
system.mem_ctrls.perBankWrBursts::1                77                       # Per bank write bursts
system.mem_ctrls.perBankWrBursts::2                29                       # Per bank write bursts
system.mem_ctrls.perBankWrBursts::3                 3                       # Per bank write bursts
system.mem_ctrls.perBankWrBursts::4                 6                       # Per bank write bursts
system.mem_ctrls.perBankWrBursts::5                 4                       # Per bank write bursts
system.mem_ctrls.perBankWrBursts::6                73                       # Per bank write bursts
system.mem_ctrls.perBankWrBursts::7                26                       # Per bank write bursts
system.mem_ctrls.perBankWrBursts::8                 7                       # Per bank write bursts
system.mem_ctrls.perBankWrBursts::9                19                       # Per bank write bursts
system.mem_ctrls.perBankWrBursts::10               19                       # Per bank write bursts
system.mem_ctrls.perBankWrBursts::11               32                       # Per bank write bursts
system.mem_ctrls.perBankWrBursts::12               12                       # Per bank write bursts
system.mem_ctrls.perBankWrBursts::13               54                       # Per bank write bursts
system.mem_ctrls.perBankWrBursts::14               66                       # Per bank write bursts
system.mem_ctrls.perBankWrBursts::15               27                       # Per bank write bursts
system.mem_ctrls.avgRdQLen                       1.00                       # Average read queue length when enqueuing
system.mem_ctrls.avgWrQLen                      32.93                       # Average write queue length when enqueuing
system.mem_ctrls.totQLat                     57381250                       # Total ticks spent queuing
system.mem_ctrls.totBusLat                   18430000                       # Total ticks spent in databus transfers
system.mem_ctrls.totMemAccLat               126493750                       # Total ticks spent from burst creation until serviced by the DRAM
system.mem_ctrls.avgQLat                     15567.35                       # Average queueing delay per DRAM burst
system.mem_ctrls.avgBusLat                    5000.00                       # Average bus latency per DRAM burst
system.mem_ctrls.avgMemAccLat                34317.35                       # Average memory access latency per DRAM burst
system.mem_ctrls.numRdRetry                         0                       # Number of times read queue was full causing retry
system.mem_ctrls.numWrRetry                         0                       # Number of times write queue was full causing retry
system.mem_ctrls.readRowHits                     2899                       # Number of row buffer hits during reads
system.mem_ctrls.writeRowHits                     413                       # Number of row buffer hits during writes
system.mem_ctrls.readRowHitRate                 78.65                       # Row buffer hit rate for reads
system.mem_ctrls.writeRowHitRate                74.28                       # Row buffer hit rate for writes
system.mem_ctrls.readPktSize::0                     0                       # Read request sizes (log2)
system.mem_ctrls.readPktSize::1                     0                       # Read request sizes (log2)
system.mem_ctrls.readPktSize::2                     0                       # Read request sizes (log2)
system.mem_ctrls.readPktSize::3                     0                       # Read request sizes (log2)
system.mem_ctrls.readPktSize::4                  3705                       # Read request sizes (log2)
system.mem_ctrls.readPktSize::5                     0                       # Read request sizes (log2)
system.mem_ctrls.readPktSize::6                     0                       # Read request sizes (log2)
system.mem_ctrls.writePktSize::0                    0                       # Write request sizes (log2)
system.mem_ctrls.writePktSize::1                    0                       # Write request sizes (log2)
system.mem_ctrls.writePktSize::2                    0                       # Write request sizes (log2)
system.mem_ctrls.writePktSize::3                    0                       # Write request sizes (log2)
system.mem_ctrls.writePktSize::4                  953                       # Write request sizes (log2)
system.mem_ctrls.writePktSize::5                    0                       # Write request sizes (log2)
system.mem_ctrls.writePktSize::6                    0                       # Write request sizes (log2)
system.mem_ctrls.rdQLenPdf::0                    3683                       # What read queue length does an incoming req see
system.mem_ctrls.rdQLenPdf::1                       3                       # What read queue length does an incoming req see
system.mem_ctrls.rdQLenPdf::2                       0                       # What read queue length does an incoming req see
system.mem_ctrls.rdQLenPdf::3                       0                       # What read queue length does an incoming req see
system.mem_ctrls.rdQLenPdf::4                       0                       # What read queue length does an incoming req see
system.mem_ctrls.rdQLenPdf::5                       0                       # What read queue length does an incoming req see
system.mem_ctrls.rdQLenPdf::6                       0                       # What read queue length does an incoming req see
system.mem_ctrls.rdQLenPdf::7                       0                       # What read queue length does an incoming req see
system.mem_ctrls.rdQLenPdf::8                       0                       # What read queue length does an incoming req see
system.mem_ctrls.rdQLenPdf::9                       0                       # What read queue length does an incoming req see
system.mem_ctrls.rdQLenPdf::10                      0                       # What read queue length does an incoming req see
system.mem_ctrls.rdQLenPdf::11                      0                       # What read queue length does an incoming req see
system.mem_ctrls.rdQLenPdf::12                      0                       # What read queue length does an incoming req see
system.mem_ctrls.rdQLenPdf::13                      0                       # What read queue length does an incoming req see
system.mem_ctrls.rdQLenPdf::14                      0                       # What read queue length does an incoming req see
system.mem_ctrls.rdQLenPdf::15                      0                       # What read queue length does an incoming req see
system.mem_ctrls.rdQLenPdf::16                      0                       # What read queue length does an incoming req see
system.mem_ctrls.rdQLenPdf::17                      0                       # What read queue length does an incoming req see
system.mem_ctrls.rdQLenPdf::18                      0                       # What read queue length does an incoming req see
system.mem_ctrls.rdQLenPdf::19                      0                       # What read queue length does an incoming req see
system.mem_ctrls.rdQLenPdf::20                      0                       # What read queue length does an incoming req see
system.mem_ctrls.rdQLenPdf::21                      0                       # What read queue length does an incoming req see
system.mem_ctrls.rdQLenPdf::22                      0                       # What read queue length does an incoming req see
system.mem_ctrls.rdQLenPdf::23                      0                       # What read queue length does an incoming req see
system.mem_ctrls.rdQLenPdf::24                      0                       # What read queue length does an incoming req see
system.mem_ctrls.rdQLenPdf::25                      0                       # What read queue length does an incoming req see
system.mem_ctrls.rdQLenPdf::26                      0                       # What read queue length does an incoming req see
system.mem_ctrls.rdQLenPdf::27                      0                       # What read queue length does an incoming req see
system.mem_ctrls.rdQLenPdf::28                      0                       # What read queue length does an incoming req see
system.mem_ctrls.rdQLenPdf::29                      0                       # What read queue length does an incoming req see
system.mem_ctrls.rdQLenPdf::30                      0                       # What read queue length does an incoming req see
system.mem_ctrls.rdQLenPdf::31                      0                       # What read queue length does an incoming req see
system.mem_ctrls.wrQLenPdf::0                       1                       # What write queue length does an incoming req see
system.mem_ctrls.wrQLenPdf::1                       1                       # What write queue length does an incoming req see
system.mem_ctrls.wrQLenPdf::2                       1                       # What write queue length does an incoming req see
system.mem_ctrls.wrQLenPdf::3                       1                       # What write queue length does an incoming req see
system.mem_ctrls.wrQLenPdf::4                       1                       # What write queue length does an incoming req see
system.mem_ctrls.wrQLenPdf::5                       1                       # What write queue length does an incoming req see
system.mem_ctrls.wrQLenPdf::6                       1                       # What write queue length does an incoming req see
system.mem_ctrls.wrQLenPdf::7                       1                       # What write queue length does an incoming req see
system.mem_ctrls.wrQLenPdf::8                       1                       # What write queue length does an incoming req see
system.mem_ctrls.wrQLenPdf::9                       1                       # What write queue length does an incoming req see
system.mem_ctrls.wrQLenPdf::10                      1                       # What write queue length does an incoming req see
system.mem_ctrls.wrQLenPdf::11                      1                       # What write queue length does an incoming req see
system.mem_ctrls.wrQLenPdf::12                      1                       # What write queue length does an incoming req see
system.mem_ctrls.wrQLenPdf::13                      1                       # What write queue length does an incoming req see
system.mem_ctrls.wrQLenPdf::14                      1                       # What write queue length does an incoming req see
system.mem_ctrls.wrQLenPdf::15                      6                       # What write queue length does an incoming req see
system.mem_ctrls.wrQLenPdf::16                      6                       # What write queue length does an incoming req see
system.mem_ctrls.wrQLenPdf::17                     34                       # What write queue length does an incoming req see
system.mem_ctrls.wrQLenPdf::18                     33                       # What write queue length does an incoming req see
system.mem_ctrls.wrQLenPdf::19                     33                       # What write queue length does an incoming req see
system.mem_ctrls.wrQLenPdf::20                     33                       # What write queue length does an incoming req see
system.mem_ctrls.wrQLenPdf::21                     33                       # What write queue length does an incoming req see
system.mem_ctrls.wrQLenPdf::22                     33                       # What write queue length does an incoming req see
system.mem_ctrls.wrQLenPdf::23                     33                       # What write queue length does an incoming req see
system.mem_ctrls.wrQLenPdf::24                     33                       # What write queue length does an incoming req see
system.mem_ctrls.wrQLenPdf::25                     33                       # What write queue length does an incoming req see
system.mem_ctrls.wrQLenPdf::26                     33                       # What write queue length does an incoming req see
system.mem_ctrls.wrQLenPdf::27                     33                       # What write queue length does an incoming req see
system.mem_ctrls.wrQLenPdf::28                     33                       # What write queue length does an incoming req see
system.mem_ctrls.wrQLenPdf::29                     33                       # What write queue length does an incoming req see
system.mem_ctrls.wrQLenPdf::30                     33                       # What write queue length does an incoming req see
system.mem_ctrls.wrQLenPdf::31                     33                       # What write queue length does an incoming req see
system.mem_ctrls.wrQLenPdf::32                     33                       # What write queue length does an incoming req see
system.mem_ctrls.wrQLenPdf::33                      0                       # What write queue length does an incoming req see
system.mem_ctrls.wrQLenPdf::34                      0                       # What write queue length does an incoming req see
system.mem_ctrls.wrQLenPdf::35                      0                       # What write queue length does an incoming req see
system.mem_ctrls.wrQLenPdf::36                      0                       # What write queue length does an incoming req see
system.mem_ctrls.wrQLenPdf::37                      0                       # What write queue length does an incoming req see
system.mem_ctrls.wrQLenPdf::38                      0                       # What write queue length does an incoming req see
system.mem_ctrls.wrQLenPdf::39                      0                       # What write queue length does an incoming req see
system.mem_ctrls.wrQLenPdf::40                      0                       # What write queue length does an incoming req see
system.mem_ctrls.wrQLenPdf::41                      0                       # What write queue length does an incoming req see
system.mem_ctrls.wrQLenPdf::42                      0                       # What write queue length does an incoming req see
system.mem_ctrls.wrQLenPdf::43                      0                       # What write queue length does an incoming req see
system.mem_ctrls.wrQLenPdf::44                      0                       # What write queue length does an incoming req see
system.mem_ctrls.wrQLenPdf::45                      0                       # What write queue length does an incoming req see
system.mem_ctrls.wrQLenPdf::46                      0                       # What write queue length does an incoming req see
system.mem_ctrls.wrQLenPdf::47                      0                       # What write queue length does an incoming req see
system.mem_ctrls.wrQLenPdf::48                      0                       # What write queue length does an incoming req see
system.mem_ctrls.wrQLenPdf::49                      0                       # What write queue length does an incoming req see
system.mem_ctrls.wrQLenPdf::50                      0                       # What write queue length does an incoming req see
system.mem_ctrls.wrQLenPdf::51                      0                       # What write queue length does an incoming req see
system.mem_ctrls.wrQLenPdf::52                      0                       # What write queue length does an incoming req see
system.mem_ctrls.wrQLenPdf::53                      0                       # What write queue length does an incoming req see
system.mem_ctrls.wrQLenPdf::54                      0                       # What write queue length does an incoming req see
system.mem_ctrls.wrQLenPdf::55                      0                       # What write queue length does an incoming req see
system.mem_ctrls.wrQLenPdf::56                      0                       # What write queue length does an incoming req see
system.mem_ctrls.wrQLenPdf::57                      0                       # What write queue length does an incoming req see
system.mem_ctrls.wrQLenPdf::58                      0                       # What write queue length does an incoming req see
system.mem_ctrls.wrQLenPdf::59                      0                       # What write queue length does an incoming req see
system.mem_ctrls.wrQLenPdf::60                      0                       # What write queue length does an incoming req see
system.mem_ctrls.wrQLenPdf::61                      0                       # What write queue length does an incoming req see
system.mem_ctrls.wrQLenPdf::62                      0                       # What write queue length does an incoming req see
system.mem_ctrls.wrQLenPdf::63                      0                       # What write queue length does an incoming req see
system.mem_ctrls.bytesPerActivate::samples          907                       # Bytes accessed per row activation
system.mem_ctrls.bytesPerActivate::mean    296.361632                       # Bytes accessed per row activation
system.mem_ctrls.bytesPerActivate::gmean   199.555150                       # Bytes accessed per row activation
system.mem_ctrls.bytesPerActivate::stdev   294.586584                       # Bytes accessed per row activation
system.mem_ctrls.bytesPerActivate::0-127          123     13.56%     13.56% # Bytes accessed per row activation
system.mem_ctrls.bytesPerActivate::128-255          469     51.71%     65.27% # Bytes accessed per row activation
system.mem_ctrls.bytesPerActivate::256-383           65      7.17%     72.44% # Bytes accessed per row activation
system.mem_ctrls.bytesPerActivate::384-511           40      4.41%     76.85% # Bytes accessed per row activation
system.mem_ctrls.bytesPerActivate::512-639           83      9.15%     86.00% # Bytes accessed per row activation
system.mem_ctrls.bytesPerActivate::640-767           20      2.21%     88.20% # Bytes accessed per row activation
system.mem_ctrls.bytesPerActivate::768-895           10      1.10%     89.31% # Bytes accessed per row activation
system.mem_ctrls.bytesPerActivate::896-1023           15      1.65%     90.96% # Bytes accessed per row activation
system.mem_ctrls.bytesPerActivate::1024-1151           82      9.04%    100.00% # Bytes accessed per row activation
system.mem_ctrls.bytesPerActivate::total          907                       # Bytes accessed per row activation
system.mem_ctrls.rdPerTurnAround::samples           33                       # Reads before turning the bus around for writes
system.mem_ctrls.rdPerTurnAround::mean     111.606061                       # Reads before turning the bus around for writes
system.mem_ctrls.rdPerTurnAround::gmean     60.768035                       # Reads before turning the bus around for writes
system.mem_ctrls.rdPerTurnAround::stdev    188.033564                       # Reads before turning the bus around for writes
system.mem_ctrls.rdPerTurnAround::0-31              6     18.18%     18.18% # Reads before turning the bus around for writes
system.mem_ctrls.rdPerTurnAround::32-63            18     54.55%     72.73% # Reads before turning the bus around for writes
system.mem_ctrls.rdPerTurnAround::64-95             4     12.12%     84.85% # Reads before turning the bus around for writes
system.mem_ctrls.rdPerTurnAround::224-255            1      3.03%     87.88% # Reads before turning the bus around for writes
system.mem_ctrls.rdPerTurnAround::256-287            1      3.03%     90.91% # Reads before turning the bus around for writes
system.mem_ctrls.rdPerTurnAround::288-319            1      3.03%     93.94% # Reads before turning the bus around for writes
system.mem_ctrls.rdPerTurnAround::704-735            1      3.03%     96.97% # Reads before turning the bus around for writes
system.mem_ctrls.rdPerTurnAround::832-863            1      3.03%    100.00% # Reads before turning the bus around for writes
system.mem_ctrls.rdPerTurnAround::total            33                       # Reads before turning the bus around for writes
system.mem_ctrls.wrPerTurnAround::samples           33                       # Writes before turning the bus around for reads
system.mem_ctrls.wrPerTurnAround::mean      16.303030                       # Writes before turning the bus around for reads
system.mem_ctrls.wrPerTurnAround::gmean     16.288098                       # Writes before turning the bus around for reads
system.mem_ctrls.wrPerTurnAround::stdev      0.728219                       # Writes before turning the bus around for reads
system.mem_ctrls.wrPerTurnAround::16               28     84.85%     84.85% # Writes before turning the bus around for reads
system.mem_ctrls.wrPerTurnAround::18                5     15.15%    100.00% # Writes before turning the bus around for reads
system.mem_ctrls.wrPerTurnAround::total            33                       # Writes before turning the bus around for reads
system.mem_ctrls.bytesReadDRAM                 235904                       # Total number of bytes read from DRAM
system.mem_ctrls.bytesReadWrQ                    1216                       # Total number of bytes read from write queue
system.mem_ctrls.bytesWritten                   34432                       # Total number of bytes written to DRAM
system.mem_ctrls.bytesReadSys                   59280                       # Total read bytes from the system interface side
system.mem_ctrls.bytesWrittenSys                15248                       # Total written bytes from the system interface side
system.mem_ctrls.avgRdBW                         3.07                       # Average DRAM read bandwidth in MiByte/s
system.mem_ctrls.avgWrBW                         0.45                       # Average achieved write bandwidth in MiByte/s
system.mem_ctrls.avgRdBWSys                      0.77                       # Average system read bandwidth in MiByte/s
system.mem_ctrls.avgWrBWSys                      0.20                       # Average system write bandwidth in MiByte/s
system.mem_ctrls.peakBW                      12800.00                       # Theoretical peak bandwidth in MiByte/s
system.mem_ctrls.busUtil                         0.03                       # Data bus utilization in percentage
system.mem_ctrls.busUtilRead                     0.02                       # Data bus utilization in percentage for reads
system.mem_ctrls.busUtilWrite                    0.00                       # Data bus utilization in percentage for writes
system.mem_ctrls.totGap                   76960605000                       # Total gap between requests
system.mem_ctrls.avgGap                   16522242.38                       # Average gap between requests
system.mem_ctrls.masterReadBytes::.cpu.inst        26016                       # Per-master bytes read from memory
system.mem_ctrls.masterReadBytes::.cpu.data        32960                       # Per-master bytes read from memory
system.mem_ctrls.masterWriteBytes::.writebacks         8608                       # Per-master bytes write to memory
system.mem_ctrls.masterReadRate::.cpu.inst 338042.847814528795                       # Per-master bytes read from memory rate (Bytes/sec)
system.mem_ctrls.masterReadRate::.cpu.data 428270.766603892611                       # Per-master bytes read from memory rate (Bytes/sec)
system.mem_ctrls.masterWriteRate::.writebacks 111849.355549948654                       # Per-master bytes write to memory rate (Bytes/sec)
system.mem_ctrls.masterReadAccesses::.cpu.inst         1635                       # Per-master read serviced memory accesses
system.mem_ctrls.masterReadAccesses::.cpu.data         2070                       # Per-master read serviced memory accesses
system.mem_ctrls.masterWriteAccesses::.writebacks          953                       # Per-master write serviced memory accesses
system.mem_ctrls.masterReadTotalLat::.cpu.inst     39975250                       # Per-master read total memory access latency
system.mem_ctrls.masterReadTotalLat::.cpu.data     86518500                       # Per-master read total memory access latency
system.mem_ctrls.masterWriteTotalLat::.writebacks 1313136786250                       # Per-master write total memory access latency
system.mem_ctrls.masterReadAvgLat::.cpu.inst     24449.69                       # Per-master read average memory access latency
system.mem_ctrls.masterReadAvgLat::.cpu.data     41796.38                       # Per-master read average memory access latency
system.mem_ctrls.masterWriteAvgLat::.writebacks 1377897991.87                       # Per-master write average memory access latency
system.mem_ctrls.pageHitRate                    78.08                       # Row buffer hit rate, read and write combined
system.mem_ctrls.rank1.actEnergy              3305820                       # Energy for activate commands per rank (pJ)
system.mem_ctrls.rank1.preEnergy              1749495                       # Energy for precharge commands per rank (pJ)
system.mem_ctrls.rank1.readEnergy            12680640                       # Energy for read commands per rank (pJ)
system.mem_ctrls.rank1.writeEnergy            1231920                       # Energy for write commands per rank (pJ)
system.mem_ctrls.rank1.refreshEnergy     6075101760.000001                       # Energy for refresh commands per rank (pJ)
system.mem_ctrls.rank1.actBackEnergy       1244878290                       # Energy for active background per rank (pJ)
system.mem_ctrls.rank1.preBackEnergy      28504574400                       # Energy for precharge background per rank (pJ)
system.mem_ctrls.rank1.actPowerDownEnergy            0                       # Energy for active power-down per rank (pJ)
system.mem_ctrls.rank1.prePowerDownEnergy            0                       # Energy for precharge power-down per rank (pJ)
system.mem_ctrls.rank1.selfRefreshEnergy            0                       # Energy for self refresh per rank (pJ)
system.mem_ctrls.rank1.totalEnergy        35843522325                       # Total energy per rank (pJ)
system.mem_ctrls.rank1.averagePower        465.738252                       # Core power per rank (mW)
system.mem_ctrls.rank1.totalIdleTime                0                       # Total Idle time Per DRAM Rank
system.mem_ctrls.rank1.memoryStateTime::IDLE  74091759250                       # Time in different power states
system.mem_ctrls.rank1.memoryStateTime::REF   2569840000                       # Time in different power states
system.mem_ctrls.rank1.memoryStateTime::SREF            0                       # Time in different power states
system.mem_ctrls.rank1.memoryStateTime::PRE_PDN            0                       # Time in different power states
system.mem_ctrls.rank1.memoryStateTime::ACT    299058750                       # Time in different power states
system.mem_ctrls.rank1.memoryStateTime::ACT_PDN            0                       # Time in different power states
system.mem_ctrls.rank0.actEnergy              3205860                       # Energy for activate commands per rank (pJ)
system.mem_ctrls.rank0.preEnergy              1692570                       # Energy for precharge commands per rank (pJ)
system.mem_ctrls.rank0.readEnergy            13637400                       # Energy for read commands per rank (pJ)
system.mem_ctrls.rank0.writeEnergy            1576440                       # Energy for write commands per rank (pJ)
system.mem_ctrls.rank0.refreshEnergy     6075101760.000001                       # Energy for refresh commands per rank (pJ)
system.mem_ctrls.rank0.actBackEnergy       1957812630                       # Energy for active background per rank (pJ)
system.mem_ctrls.rank0.preBackEnergy      27904208640                       # Energy for precharge background per rank (pJ)
system.mem_ctrls.rank0.actPowerDownEnergy            0                       # Energy for active power-down per rank (pJ)
system.mem_ctrls.rank0.prePowerDownEnergy            0                       # Energy for precharge power-down per rank (pJ)
system.mem_ctrls.rank0.selfRefreshEnergy            0                       # Energy for self refresh per rank (pJ)
system.mem_ctrls.rank0.totalEnergy        35957235300                       # Total energy per rank (pJ)
system.mem_ctrls.rank0.averagePower        467.215799                       # Core power per rank (mW)
system.mem_ctrls.rank0.totalIdleTime                0                       # Total Idle time Per DRAM Rank
system.mem_ctrls.rank0.memoryStateTime::IDLE  72527790500                       # Time in different power states
system.mem_ctrls.rank0.memoryStateTime::REF   2569840000                       # Time in different power states
system.mem_ctrls.rank0.memoryStateTime::SREF            0                       # Time in different power states
system.mem_ctrls.rank0.memoryStateTime::PRE_PDN            0                       # Time in different power states
system.mem_ctrls.rank0.memoryStateTime::ACT   1863027500                       # Time in different power states
system.mem_ctrls.rank0.memoryStateTime::ACT_PDN            0                       # Time in different power states
system.cpu_clk_domain.clock                       500                       # Clock period in ticks
system.cpu.numPwrStateTransitions                   1                       # Number of power state transitions
system.cpu.pwrStateResidencyTicks::ON     76960658000                       # Cumulative time (in ticks) in various power states
system.cpu.icache.pwrStateResidencyTicks::UNDEFINED  76960658000                       # Cumulative time (in ticks) in various power states
system.cpu.icache.demand_hits::.cpu.inst     57536510                       # number of demand (read+write) hits
system.cpu.icache.demand_hits::total         57536510                       # number of demand (read+write) hits
system.cpu.icache.overall_hits::.cpu.inst     57536510                       # number of overall hits
system.cpu.icache.overall_hits::total        57536510                       # number of overall hits
system.cpu.icache.demand_misses::.cpu.inst         1635                       # number of demand (read+write) misses
system.cpu.icache.demand_misses::total           1635                       # number of demand (read+write) misses
system.cpu.icache.overall_misses::.cpu.inst         1635                       # number of overall misses
system.cpu.icache.overall_misses::total          1635                       # number of overall misses
system.cpu.icache.demand_miss_latency::.cpu.inst     92750000                       # number of demand (read+write) miss cycles
system.cpu.icache.demand_miss_latency::total     92750000                       # number of demand (read+write) miss cycles
system.cpu.icache.overall_miss_latency::.cpu.inst     92750000                       # number of overall miss cycles
system.cpu.icache.overall_miss_latency::total     92750000                       # number of overall miss cycles
system.cpu.icache.demand_accesses::.cpu.inst     57538145                       # number of demand (read+write) accesses
system.cpu.icache.demand_accesses::total     57538145                       # number of demand (read+write) accesses
system.cpu.icache.overall_accesses::.cpu.inst     57538145                       # number of overall (read+write) accesses
system.cpu.icache.overall_accesses::total     57538145                       # number of overall (read+write) accesses
system.cpu.icache.demand_miss_rate::.cpu.inst     0.000028                       # miss rate for demand accesses
system.cpu.icache.demand_miss_rate::total     0.000028                       # miss rate for demand accesses
system.cpu.icache.overall_miss_rate::.cpu.inst     0.000028                       # miss rate for overall accesses
system.cpu.icache.overall_miss_rate::total     0.000028                       # miss rate for overall accesses
system.cpu.icache.demand_avg_miss_latency::.cpu.inst 56727.828746                       # average overall miss latency
system.cpu.icache.demand_avg_miss_latency::total 56727.828746                       # average overall miss latency
system.cpu.icache.overall_avg_miss_latency::.cpu.inst 56727.828746                       # average overall miss latency
system.cpu.icache.overall_avg_miss_latency::total 56727.828746                       # average overall miss latency
system.cpu.icache.blocked_cycles::no_mshrs            0                       # number of cycles access was blocked
system.cpu.icache.blocked_cycles::no_targets            0                       # number of cycles access was blocked
system.cpu.icache.blocked::no_mshrs                 0                       # number of cycles access was blocked
system.cpu.icache.blocked::no_targets               0                       # number of cycles access was blocked
system.cpu.icache.avg_blocked_cycles::no_mshrs          nan                       # average number of cycles each access was blocked
system.cpu.icache.avg_blocked_cycles::no_targets          nan                       # average number of cycles each access was blocked
system.cpu.icache.writebacks::.writebacks          696                       # number of writebacks
system.cpu.icache.writebacks::total               696                       # number of writebacks
system.cpu.icache.demand_mshr_misses::.cpu.inst         1635                       # number of demand (read+write) MSHR misses
system.cpu.icache.demand_mshr_misses::total         1635                       # number of demand (read+write) MSHR misses
system.cpu.icache.overall_mshr_misses::.cpu.inst         1635                       # number of overall MSHR misses
system.cpu.icache.overall_mshr_misses::total         1635                       # number of overall MSHR misses
system.cpu.icache.demand_mshr_miss_latency::.cpu.inst     91115000                       # number of demand (read+write) MSHR miss cycles
system.cpu.icache.demand_mshr_miss_latency::total     91115000                       # number of demand (read+write) MSHR miss cycles
system.cpu.icache.overall_mshr_miss_latency::.cpu.inst     91115000                       # number of overall MSHR miss cycles
system.cpu.icache.overall_mshr_miss_latency::total     91115000                       # number of overall MSHR miss cycles
system.cpu.icache.demand_mshr_miss_rate::.cpu.inst     0.000028                       # mshr miss rate for demand accesses
system.cpu.icache.demand_mshr_miss_rate::total     0.000028                       # mshr miss rate for demand accesses
system.cpu.icache.overall_mshr_miss_rate::.cpu.inst     0.000028                       # mshr miss rate for overall accesses
system.cpu.icache.overall_mshr_miss_rate::total     0.000028                       # mshr miss rate for overall accesses
system.cpu.icache.demand_avg_mshr_miss_latency::.cpu.inst 55727.828746                       # average overall mshr miss latency
system.cpu.icache.demand_avg_mshr_miss_latency::total 55727.828746                       # average overall mshr miss latency
system.cpu.icache.overall_avg_mshr_miss_latency::.cpu.inst 55727.828746                       # average overall mshr miss latency
system.cpu.icache.overall_avg_mshr_miss_latency::total 55727.828746                       # average overall mshr miss latency
system.cpu.icache.replacements                    696                       # number of replacements
system.cpu.icache.ReadReq_hits::.cpu.inst     57536510                       # number of ReadReq hits
system.cpu.icache.ReadReq_hits::total        57536510                       # number of ReadReq hits
system.cpu.icache.ReadReq_misses::.cpu.inst         1635                       # number of ReadReq misses
system.cpu.icache.ReadReq_misses::total          1635                       # number of ReadReq misses
system.cpu.icache.ReadReq_miss_latency::.cpu.inst     92750000                       # number of ReadReq miss cycles
system.cpu.icache.ReadReq_miss_latency::total     92750000                       # number of ReadReq miss cycles
system.cpu.icache.ReadReq_accesses::.cpu.inst     57538145                       # number of ReadReq accesses(hits+misses)
system.cpu.icache.ReadReq_accesses::total     57538145                       # number of ReadReq accesses(hits+misses)
system.cpu.icache.ReadReq_miss_rate::.cpu.inst     0.000028                       # miss rate for ReadReq accesses
system.cpu.icache.ReadReq_miss_rate::total     0.000028                       # miss rate for ReadReq accesses
system.cpu.icache.ReadReq_avg_miss_latency::.cpu.inst 56727.828746                       # average ReadReq miss latency
system.cpu.icache.ReadReq_avg_miss_latency::total 56727.828746                       # average ReadReq miss latency
system.cpu.icache.ReadReq_mshr_misses::.cpu.inst         1635                       # number of ReadReq MSHR misses
system.cpu.icache.ReadReq_mshr_misses::total         1635                       # number of ReadReq MSHR misses
system.cpu.icache.ReadReq_mshr_miss_latency::.cpu.inst     91115000                       # number of ReadReq MSHR miss cycles
system.cpu.icache.ReadReq_mshr_miss_latency::total     91115000                       # number of ReadReq MSHR miss cycles
system.cpu.icache.ReadReq_mshr_miss_rate::.cpu.inst     0.000028                       # mshr miss rate for ReadReq accesses
system.cpu.icache.ReadReq_mshr_miss_rate::total     0.000028                       # mshr miss rate for ReadReq accesses
system.cpu.icache.ReadReq_avg_mshr_miss_latency::.cpu.inst 55727.828746                       # average ReadReq mshr miss latency
system.cpu.icache.ReadReq_avg_mshr_miss_latency::total 55727.828746                       # average ReadReq mshr miss latency
system.cpu.icache.tags.pwrStateResidencyTicks::UNDEFINED  76960658000                       # Cumulative time (in ticks) in various power states
system.cpu.icache.tags.tagsinuse           740.640181                       # Cycle average of tags in use
system.cpu.icache.tags.total_refs            57538145                       # Total number of references to valid blocks.
system.cpu.icache.tags.sampled_refs              1635                       # Sample count of references to valid blocks.
system.cpu.icache.tags.avg_refs          35191.525994                       # Average number of references to valid blocks.
system.cpu.icache.tags.warmup_cycle             77000                       # Cycle when the warmup percentage was hit.
system.cpu.icache.tags.occ_blocks::.cpu.inst   740.640181                       # Average occupied blocks per requestor
system.cpu.icache.tags.occ_percent::.cpu.inst     0.723281                       # Average percentage of cache occupancy
system.cpu.icache.tags.occ_percent::total     0.723281                       # Average percentage of cache occupancy
system.cpu.icache.tags.occ_task_id_blocks::1024          939                       # Occupied blocks per task id
system.cpu.icache.tags.age_task_id_blocks_1024::0          132                       # Occupied blocks per task id
system.cpu.icache.tags.age_task_id_blocks_1024::1          405                       # Occupied blocks per task id
system.cpu.icache.tags.age_task_id_blocks_1024::4          402                       # Occupied blocks per task id
system.cpu.icache.tags.occ_task_id_percent::1024     0.916992                       # Percentage of cache occupancy per task id
system.cpu.icache.tags.tag_accesses         115077925                       # Number of tag accesses
system.cpu.icache.tags.data_accesses        115077925                       # Number of data accesses
system.cpu.dtb.walker.pwrStateResidencyTicks::UNDEFINED  76960658000                       # Cumulative time (in ticks) in various power states
system.cpu.interrupts.clk_domain.clock           8000                       # Clock period in ticks
system.cpu.itb_walker_cache.pwrStateResidencyTicks::UNDEFINED  76960658000                       # Cumulative time (in ticks) in various power states
system.cpu.itb_walker_cache.blocked_cycles::no_mshrs            0                       # number of cycles access was blocked
system.cpu.itb_walker_cache.blocked_cycles::no_targets            0                       # number of cycles access was blocked
system.cpu.itb_walker_cache.blocked::no_mshrs            0                       # number of cycles access was blocked
system.cpu.itb_walker_cache.blocked::no_targets            0                       # number of cycles access was blocked
system.cpu.itb_walker_cache.avg_blocked_cycles::no_mshrs          nan                       # average number of cycles each access was blocked
system.cpu.itb_walker_cache.avg_blocked_cycles::no_targets          nan                       # average number of cycles each access was blocked
system.cpu.itb_walker_cache.replacements            0                       # number of replacements
system.cpu.itb_walker_cache.tags.pwrStateResidencyTicks::UNDEFINED  76960658000                       # Cumulative time (in ticks) in various power states
system.cpu.itb_walker_cache.tags.tagsinuse            0                       # Cycle average of tags in use
system.cpu.itb_walker_cache.tags.total_refs            0                       # Total number of references to valid blocks.
system.cpu.itb_walker_cache.tags.sampled_refs            0                       # Sample count of references to valid blocks.
system.cpu.itb_walker_cache.tags.avg_refs          nan                       # Average number of references to valid blocks.
system.cpu.itb_walker_cache.tags.warmup_cycle            0                       # Cycle when the warmup percentage was hit.
system.cpu.itb_walker_cache.tags.tag_accesses            0                       # Number of tag accesses
system.cpu.itb_walker_cache.tags.data_accesses            0                       # Number of data accesses
system.cpu.itb.walker.pwrStateResidencyTicks::UNDEFINED  76960658000                       # Cumulative time (in ticks) in various power states
system.cpu.dtb_walker_cache.pwrStateResidencyTicks::UNDEFINED  76960658000                       # Cumulative time (in ticks) in various power states
system.cpu.dtb_walker_cache.blocked_cycles::no_mshrs            0                       # number of cycles access was blocked
system.cpu.dtb_walker_cache.blocked_cycles::no_targets            0                       # number of cycles access was blocked
system.cpu.dtb_walker_cache.blocked::no_mshrs            0                       # number of cycles access was blocked
system.cpu.dtb_walker_cache.blocked::no_targets            0                       # number of cycles access was blocked
system.cpu.dtb_walker_cache.avg_blocked_cycles::no_mshrs          nan                       # average number of cycles each access was blocked
system.cpu.dtb_walker_cache.avg_blocked_cycles::no_targets          nan                       # average number of cycles each access was blocked
system.cpu.dtb_walker_cache.replacements            0                       # number of replacements
system.cpu.dtb_walker_cache.tags.pwrStateResidencyTicks::UNDEFINED  76960658000                       # Cumulative time (in ticks) in various power states
system.cpu.dtb_walker_cache.tags.tagsinuse            0                       # Cycle average of tags in use
system.cpu.dtb_walker_cache.tags.total_refs            0                       # Total number of references to valid blocks.
system.cpu.dtb_walker_cache.tags.sampled_refs            0                       # Sample count of references to valid blocks.
system.cpu.dtb_walker_cache.tags.avg_refs          nan                       # Average number of references to valid blocks.
system.cpu.dtb_walker_cache.tags.warmup_cycle            0                       # Cycle when the warmup percentage was hit.
system.cpu.dtb_walker_cache.tags.tag_accesses            0                       # Number of tag accesses
system.cpu.dtb_walker_cache.tags.data_accesses            0                       # Number of data accesses
system.cpu.dcache.pwrStateResidencyTicks::UNDEFINED  76960658000                       # Cumulative time (in ticks) in various power states
system.cpu.dcache.demand_hits::.cpu.data     19178205                       # number of demand (read+write) hits
system.cpu.dcache.demand_hits::total         19178205                       # number of demand (read+write) hits
system.cpu.dcache.overall_hits::.cpu.data     19178205                       # number of overall hits
system.cpu.dcache.overall_hits::total        19178205                       # number of overall hits
system.cpu.dcache.demand_misses::.cpu.data         2070                       # number of demand (read+write) misses
system.cpu.dcache.demand_misses::total           2070                       # number of demand (read+write) misses
system.cpu.dcache.overall_misses::.cpu.data         2070                       # number of overall misses
system.cpu.dcache.overall_misses::total          2070                       # number of overall misses
system.cpu.dcache.demand_miss_latency::.cpu.data    153376000                       # number of demand (read+write) miss cycles
system.cpu.dcache.demand_miss_latency::total    153376000                       # number of demand (read+write) miss cycles
system.cpu.dcache.overall_miss_latency::.cpu.data    153376000                       # number of overall miss cycles
system.cpu.dcache.overall_miss_latency::total    153376000                       # number of overall miss cycles
system.cpu.dcache.demand_accesses::.cpu.data     19180275                       # number of demand (read+write) accesses
system.cpu.dcache.demand_accesses::total     19180275                       # number of demand (read+write) accesses
system.cpu.dcache.overall_accesses::.cpu.data     19180275                       # number of overall (read+write) accesses
system.cpu.dcache.overall_accesses::total     19180275                       # number of overall (read+write) accesses
system.cpu.dcache.demand_miss_rate::.cpu.data     0.000108                       # miss rate for demand accesses
system.cpu.dcache.demand_miss_rate::total     0.000108                       # miss rate for demand accesses
system.cpu.dcache.overall_miss_rate::.cpu.data     0.000108                       # miss rate for overall accesses
system.cpu.dcache.overall_miss_rate::total     0.000108                       # miss rate for overall accesses
system.cpu.dcache.demand_avg_miss_latency::.cpu.data 74094.685990                       # average overall miss latency
system.cpu.dcache.demand_avg_miss_latency::total 74094.685990                       # average overall miss latency
system.cpu.dcache.overall_avg_miss_latency::.cpu.data 74094.685990                       # average overall miss latency
system.cpu.dcache.overall_avg_miss_latency::total 74094.685990                       # average overall miss latency
system.cpu.dcache.blocked_cycles::no_mshrs            0                       # number of cycles access was blocked
system.cpu.dcache.blocked_cycles::no_targets            0                       # number of cycles access was blocked
system.cpu.dcache.blocked::no_mshrs                 0                       # number of cycles access was blocked
system.cpu.dcache.blocked::no_targets               0                       # number of cycles access was blocked
system.cpu.dcache.avg_blocked_cycles::no_mshrs          nan                       # average number of cycles each access was blocked
system.cpu.dcache.avg_blocked_cycles::no_targets          nan                       # average number of cycles each access was blocked
system.cpu.dcache.writebacks::.writebacks          257                       # number of writebacks
system.cpu.dcache.writebacks::total               257                       # number of writebacks
system.cpu.dcache.demand_mshr_misses::.cpu.data         2070                       # number of demand (read+write) MSHR misses
system.cpu.dcache.demand_mshr_misses::total         2070                       # number of demand (read+write) MSHR misses
system.cpu.dcache.overall_mshr_misses::.cpu.data         2070                       # number of overall MSHR misses
system.cpu.dcache.overall_mshr_misses::total         2070                       # number of overall MSHR misses
system.cpu.dcache.demand_mshr_miss_latency::.cpu.data    151306000                       # number of demand (read+write) MSHR miss cycles
system.cpu.dcache.demand_mshr_miss_latency::total    151306000                       # number of demand (read+write) MSHR miss cycles
system.cpu.dcache.overall_mshr_miss_latency::.cpu.data    151306000                       # number of overall MSHR miss cycles
system.cpu.dcache.overall_mshr_miss_latency::total    151306000                       # number of overall MSHR miss cycles
system.cpu.dcache.demand_mshr_miss_rate::.cpu.data     0.000108                       # mshr miss rate for demand accesses
system.cpu.dcache.demand_mshr_miss_rate::total     0.000108                       # mshr miss rate for demand accesses
system.cpu.dcache.overall_mshr_miss_rate::.cpu.data     0.000108                       # mshr miss rate for overall accesses
system.cpu.dcache.overall_mshr_miss_rate::total     0.000108                       # mshr miss rate for overall accesses
system.cpu.dcache.demand_avg_mshr_miss_latency::.cpu.data 73094.685990                       # average overall mshr miss latency
system.cpu.dcache.demand_avg_mshr_miss_latency::total 73094.685990                       # average overall mshr miss latency
system.cpu.dcache.overall_avg_mshr_miss_latency::.cpu.data 73094.685990                       # average overall mshr miss latency
system.cpu.dcache.overall_avg_mshr_miss_latency::total 73094.685990                       # average overall mshr miss latency
system.cpu.dcache.replacements                   1124                       # number of replacements
system.cpu.dcache.ReadReq_hits::.cpu.data     13696827                       # number of ReadReq hits
system.cpu.dcache.ReadReq_hits::total        13696827                       # number of ReadReq hits
system.cpu.dcache.ReadReq_misses::.cpu.data         1612                       # number of ReadReq misses
system.cpu.dcache.ReadReq_misses::total          1612                       # number of ReadReq misses
system.cpu.dcache.ReadReq_miss_latency::.cpu.data    127662000                       # number of ReadReq miss cycles
system.cpu.dcache.ReadReq_miss_latency::total    127662000                       # number of ReadReq miss cycles
system.cpu.dcache.ReadReq_accesses::.cpu.data     13698439                       # number of ReadReq accesses(hits+misses)
system.cpu.dcache.ReadReq_accesses::total     13698439                       # number of ReadReq accesses(hits+misses)
system.cpu.dcache.ReadReq_miss_rate::.cpu.data     0.000118                       # miss rate for ReadReq accesses
system.cpu.dcache.ReadReq_miss_rate::total     0.000118                       # miss rate for ReadReq accesses
system.cpu.dcache.ReadReq_avg_miss_latency::.cpu.data 79194.789082                       # average ReadReq miss latency
system.cpu.dcache.ReadReq_avg_miss_latency::total 79194.789082                       # average ReadReq miss latency
system.cpu.dcache.ReadReq_mshr_misses::.cpu.data         1612                       # number of ReadReq MSHR misses
system.cpu.dcache.ReadReq_mshr_misses::total         1612                       # number of ReadReq MSHR misses
system.cpu.dcache.ReadReq_mshr_miss_latency::.cpu.data    126050000                       # number of ReadReq MSHR miss cycles
system.cpu.dcache.ReadReq_mshr_miss_latency::total    126050000                       # number of ReadReq MSHR miss cycles
system.cpu.dcache.ReadReq_mshr_miss_rate::.cpu.data     0.000118                       # mshr miss rate for ReadReq accesses
system.cpu.dcache.ReadReq_mshr_miss_rate::total     0.000118                       # mshr miss rate for ReadReq accesses
system.cpu.dcache.ReadReq_avg_mshr_miss_latency::.cpu.data 78194.789082                       # average ReadReq mshr miss latency
system.cpu.dcache.ReadReq_avg_mshr_miss_latency::total 78194.789082                       # average ReadReq mshr miss latency
system.cpu.dcache.WriteReq_hits::.cpu.data      5481378                       # number of WriteReq hits
system.cpu.dcache.WriteReq_hits::total        5481378                       # number of WriteReq hits
system.cpu.dcache.WriteReq_misses::.cpu.data          458                       # number of WriteReq misses
system.cpu.dcache.WriteReq_misses::total          458                       # number of WriteReq misses
system.cpu.dcache.WriteReq_miss_latency::.cpu.data     25714000                       # number of WriteReq miss cycles
system.cpu.dcache.WriteReq_miss_latency::total     25714000                       # number of WriteReq miss cycles
system.cpu.dcache.WriteReq_accesses::.cpu.data      5481836                       # number of WriteReq accesses(hits+misses)
system.cpu.dcache.WriteReq_accesses::total      5481836                       # number of WriteReq accesses(hits+misses)
system.cpu.dcache.WriteReq_miss_rate::.cpu.data     0.000084                       # miss rate for WriteReq accesses
system.cpu.dcache.WriteReq_miss_rate::total     0.000084                       # miss rate for WriteReq accesses
system.cpu.dcache.WriteReq_avg_miss_latency::.cpu.data 56144.104803                       # average WriteReq miss latency
system.cpu.dcache.WriteReq_avg_miss_latency::total 56144.104803                       # average WriteReq miss latency
system.cpu.dcache.WriteReq_mshr_misses::.cpu.data          458                       # number of WriteReq MSHR misses
system.cpu.dcache.WriteReq_mshr_misses::total          458                       # number of WriteReq MSHR misses
system.cpu.dcache.WriteReq_mshr_miss_latency::.cpu.data     25256000                       # number of WriteReq MSHR miss cycles
system.cpu.dcache.WriteReq_mshr_miss_latency::total     25256000                       # number of WriteReq MSHR miss cycles
system.cpu.dcache.WriteReq_mshr_miss_rate::.cpu.data     0.000084                       # mshr miss rate for WriteReq accesses
system.cpu.dcache.WriteReq_mshr_miss_rate::total     0.000084                       # mshr miss rate for WriteReq accesses
system.cpu.dcache.WriteReq_avg_mshr_miss_latency::.cpu.data 55144.104803                       # average WriteReq mshr miss latency
system.cpu.dcache.WriteReq_avg_mshr_miss_latency::total 55144.104803                       # average WriteReq mshr miss latency
system.cpu.dcache.tags.pwrStateResidencyTicks::UNDEFINED  76960658000                       # Cumulative time (in ticks) in various power states
system.cpu.dcache.tags.tagsinuse           930.973012                       # Cycle average of tags in use
system.cpu.dcache.tags.total_refs            19180275                       # Total number of references to valid blocks.
system.cpu.dcache.tags.sampled_refs              2070                       # Sample count of references to valid blocks.
system.cpu.dcache.tags.avg_refs           9265.833333                       # Average number of references to valid blocks.
system.cpu.dcache.tags.warmup_cycle            144000                       # Cycle when the warmup percentage was hit.
system.cpu.dcache.tags.occ_blocks::.cpu.data   930.973012                       # Average occupied blocks per requestor
system.cpu.dcache.tags.occ_percent::.cpu.data     0.909153                       # Average percentage of cache occupancy
system.cpu.dcache.tags.occ_percent::total     0.909153                       # Average percentage of cache occupancy
system.cpu.dcache.tags.occ_task_id_blocks::1024          946                       # Occupied blocks per task id
system.cpu.dcache.tags.age_task_id_blocks_1024::0           26                       # Occupied blocks per task id
system.cpu.dcache.tags.age_task_id_blocks_1024::1           92                       # Occupied blocks per task id
system.cpu.dcache.tags.age_task_id_blocks_1024::4          828                       # Occupied blocks per task id
system.cpu.dcache.tags.occ_task_id_percent::1024     0.923828                       # Percentage of cache occupancy per task id
system.cpu.dcache.tags.tag_accesses          19182345                       # Number of tag accesses
system.cpu.dcache.tags.data_accesses         19182345                       # Number of data accesses

---------- End Simulation Statistics   ----------
