
---------- Begin Simulation Statistics ----------
final_tick                                78153927000                       # Number of ticks from beginning of simulation (restored from checkpoints and never reset)
host_inst_rate                                 774916                       # Simulator instruction rate (inst/s)
host_mem_usage                                 681288                       # Number of bytes of host memory used
host_op_rate                                  1299270                       # Simulator op (including micro ops) rate (op/s)
host_seconds                                    60.11                       # Real time elapsed on the host
host_tick_rate                             1300282280                       # Simulator tick rate (ticks/s)
sim_freq                                 1000000000000                       # Frequency of simulated ticks
sim_insts                                    46576534                       # Number of instructions simulated
sim_ops                                      78093026                       # Number of ops (including micro ops) simulated
sim_seconds                                  0.078154                       # Number of seconds simulated
sim_ticks                                 78153927000                       # Number of ticks simulated
system.cpu.Branches                           6851974                       # Number of branches fetched
system.cpu.committedInsts                    46576534                       # Number of instructions committed
system.cpu.committedOps                      78093026                       # Number of ops (including micro ops) committed
system.cpu.dtb.rdAccesses                    13698424                       # TLB accesses on read requests
system.cpu.dtb.rdMisses                            13                       # TLB misses on read requests
system.cpu.dtb.wrAccesses                     5481832                       # TLB accesses on write requests
system.cpu.dtb.wrMisses                             9                       # TLB misses on write requests
system.cpu.idle_fraction                     0.000000                       # Percentage of idle cycles
system.cpu.itb.rdAccesses                           0                       # TLB accesses on read requests
system.cpu.itb.rdMisses                             0                       # TLB misses on read requests
system.cpu.itb.wrAccesses                    57538145                       # TLB accesses on write requests
system.cpu.itb.wrMisses                            48                       # TLB misses on write requests
system.cpu.not_idle_fraction                 1.000000                       # Percentage of non-idle cycles
system.cpu.numCycles                        156307854                       # number of cpu cycles simulated
system.cpu.numWorkItemsCompleted                    0                       # number of work items this cpu completed
system.cpu.numWorkItemsStarted                      0                       # number of work items this cpu started
system.cpu.num_busy_cycles               156307853.998000                       # Number of busy cycles
system.cpu.num_cc_register_reads             26041561                       # number of times the CC registers were read
system.cpu.num_cc_register_writes            16446004                       # number of times the CC registers were written
system.cpu.num_conditional_control_insts      4112122                       # number of instructions that are conditional controls
system.cpu.num_fp_alu_accesses                   2071                       # Number of float alu accesses
system.cpu.num_fp_insts                          2071                       # number of float instructions
system.cpu.num_fp_register_reads                 3981                       # number of times the floating registers were read
system.cpu.num_fp_register_writes                1590                       # number of times the floating registers were written
system.cpu.num_func_calls                     2739154                       # number of times a function call or return occured
system.cpu.num_idle_cycles                   0.002000                       # Number of idle cycles
system.cpu.num_int_alu_accesses              78091217                       # Number of integer alu accesses
system.cpu.num_int_insts                     78091217                       # number of integer instructions
system.cpu.num_int_register_reads           178083162                       # number of times the integer registers were read
system.cpu.num_int_register_writes           65757491                       # number of times the integer registers were written
system.cpu.num_load_insts                    13698419                       # Number of load instructions
system.cpu.num_mem_refs                      19180250                       # number of memory refs
system.cpu.num_store_insts                    5481831                       # Number of store instructions
system.cpu.num_vec_alu_accesses                     0                       # Number of vector alu accesses
system.cpu.num_vec_insts                            0                       # number of vector instructions
system.cpu.num_vec_register_reads                   0                       # number of times the vector registers were read
system.cpu.num_vec_register_writes                  0                       # number of times the vector registers were written
system.cpu.op_class::No_OpClass                   114      0.00%      0.00% # Class of executed instruction
system.cpu.op_class::IntAlu                  58911567     75.44%     75.44% # Class of executed instruction
system.cpu.op_class::IntMult                       11      0.00%     75.44% # Class of executed instruction
system.cpu.op_class::IntDiv                        28      0.00%     75.44% # Class of executed instruction
system.cpu.op_class::FloatAdd                      14      0.00%     75.44% # Class of executed instruction
system.cpu.op_class::FloatCmp                       0      0.00%     75.44% # Class of executed instruction
system.cpu.op_class::FloatCvt                       0      0.00%     75.44% # Class of executed instruction
system.cpu.op_class::FloatMult                      0      0.00%     75.44% # Class of executed instruction
system.cpu.op_class::FloatMultAcc                   0      0.00%     75.44% # Class of executed instruction
system.cpu.op_class::FloatDiv                       0      0.00%     75.44% # Class of executed instruction
system.cpu.op_class::FloatMisc                      0      0.00%     75.44% # Class of executed instruction
system.cpu.op_class::FloatSqrt                      0      0.00%     75.44% # Class of executed instruction
system.cpu.op_class::SimdAdd                      374      0.00%     75.44% # Class of executed instruction
system.cpu.op_class::SimdAddAcc                     0      0.00%     75.44% # Class of executed instruction
system.cpu.op_class::SimdAlu                       92      0.00%     75.44% # Class of executed instruction
system.cpu.op_class::SimdCmp                        0      0.00%     75.44% # Class of executed instruction
system.cpu.op_class::SimdCvt                      132      0.00%     75.44% # Class of executed instruction
system.cpu.op_class::SimdMisc                     258      0.00%     75.44% # Class of executed instruction
system.cpu.op_class::SimdMult                       0      0.00%     75.44% # Class of executed instruction
system.cpu.op_class::SimdMultAcc                    0      0.00%     75.44% # Class of executed instruction
system.cpu.op_class::SimdShift                    186      0.00%     75.44% # Class of executed instruction
system.cpu.op_class::SimdShiftAcc                   0      0.00%     75.44% # Class of executed instruction
system.cpu.op_class::SimdDiv                        0      0.00%     75.44% # Class of executed instruction
system.cpu.op_class::SimdSqrt                       0      0.00%     75.44% # Class of executed instruction
system.cpu.op_class::SimdFloatAdd                   0      0.00%     75.44% # Class of executed instruction
system.cpu.op_class::SimdFloatAlu                   0      0.00%     75.44% # Class of executed instruction
system.cpu.op_class::SimdFloatCmp                   0      0.00%     75.44% # Class of executed instruction
system.cpu.op_class::SimdFloatCvt                   0      0.00%     75.44% # Class of executed instruction
system.cpu.op_class::SimdFloatDiv                   0      0.00%     75.44% # Class of executed instruction
system.cpu.op_class::SimdFloatMisc                  0      0.00%     75.44% # Class of executed instruction
system.cpu.op_class::SimdFloatMult                  0      0.00%     75.44% # Class of executed instruction
system.cpu.op_class::SimdFloatMultAcc               0      0.00%     75.44% # Class of executed instruction
system.cpu.op_class::SimdFloatSqrt                  0      0.00%     75.44% # Class of executed instruction
system.cpu.op_class::SimdReduceAdd                  0      0.00%     75.44% # Class of executed instruction
system.cpu.op_class::SimdReduceAlu                  0      0.00%     75.44% # Class of executed instruction
system.cpu.op_class::SimdReduceCmp                  0      0.00%     75.44% # Class of executed instruction
system.cpu.op_class::SimdFloatReduceAdd             0      0.00%     75.44% # Class of executed instruction
system.cpu.op_class::SimdFloatReduceCmp             0      0.00%     75.44% # Class of executed instruction
system.cpu.op_class::SimdAes                        0      0.00%     75.44% # Class of executed instruction
system.cpu.op_class::SimdAesMix                     0      0.00%     75.44% # Class of executed instruction
system.cpu.op_class::SimdSha1Hash                   0      0.00%     75.44% # Class of executed instruction
system.cpu.op_class::SimdSha1Hash2                  0      0.00%     75.44% # Class of executed instruction
system.cpu.op_class::SimdSha256Hash                 0      0.00%     75.44% # Class of executed instruction
system.cpu.op_class::SimdSha256Hash2                0      0.00%     75.44% # Class of executed instruction
system.cpu.op_class::SimdShaSigma2                  0      0.00%     75.44% # Class of executed instruction
system.cpu.op_class::SimdShaSigma3                  0      0.00%     75.44% # Class of executed instruction
system.cpu.op_class::SimdPredAlu                    0      0.00%     75.44% # Class of executed instruction
system.cpu.op_class::MemRead                 13698345     17.54%     92.98% # Class of executed instruction
system.cpu.op_class::MemWrite                 5481414      7.02%    100.00% # Class of executed instruction
system.cpu.op_class::FloatMemRead                  74      0.00%    100.00% # Class of executed instruction
system.cpu.op_class::FloatMemWrite                417      0.00%    100.00% # Class of executed instruction
system.cpu.op_class::IprAccess                      0      0.00%    100.00% # Class of executed instruction
system.cpu.op_class::InstPrefetch                   0      0.00%    100.00% # Class of executed instruction
system.cpu.op_class::total                   78093026                       # Class of executed instruction
system.cpu.workload.numSyscalls                   184                       # Number of system calls
system.membus.snoop_filter.hit_multi_requests            0                       # Number of requests hitting in the snoop filter with multiple (>1) holders of the requested data.
system.membus.snoop_filter.hit_multi_snoops            0                       # Number of snoops hitting in the snoop filter with multiple (>1) holders of the requested data.
system.membus.snoop_filter.hit_single_requests        23590                       # Number of requests hitting in the snoop filter with a single holder of the requested data.
system.membus.snoop_filter.hit_single_snoops            0                       # Number of snoops hitting in the snoop filter with a single holder of the requested data.
system.membus.snoop_filter.tot_requests         47308                       # Total number of requests made to the snoop filter.
system.membus.snoop_filter.tot_snoops               0                       # Total number of snoops made to the snoop filter.
system.membus.pwrStateResidencyTicks::UNDEFINED  78153927000                       # Cumulative time (in ticks) in various power states
system.membus.trans_dist::ReadResp              23402                       # Transaction distribution
system.membus.trans_dist::WritebackDirty          504                       # Transaction distribution
system.membus.trans_dist::WritebackClean          697                       # Transaction distribution
system.membus.trans_dist::CleanEvict            22389                       # Transaction distribution
system.membus.trans_dist::ReadExReq               316                       # Transaction distribution
system.membus.trans_dist::ReadExResp              316                       # Transaction distribution
system.membus.trans_dist::ReadCleanReq            761                       # Transaction distribution
system.membus.trans_dist::ReadSharedReq         22641                       # Transaction distribution
system.membus.pkt_count_system.cpu.icache.mem_side::system.mem_ctrls.port         2219                       # Packet count per connected master and slave (bytes)
system.membus.pkt_count_system.cpu.icache.mem_side::total         2219                       # Packet count per connected master and slave (bytes)
system.membus.pkt_count_system.cpu.dcache.mem_side::system.mem_ctrls.port        68807                       # Packet count per connected master and slave (bytes)
system.membus.pkt_count_system.cpu.dcache.mem_side::total        68807                       # Packet count per connected master and slave (bytes)
system.membus.pkt_count::total                  71026                       # Packet count per connected master and slave (bytes)
system.membus.pkt_size_system.cpu.icache.mem_side::system.mem_ctrls.port        93312                       # Cumulative packet size per connected master and slave (bytes)
system.membus.pkt_size_system.cpu.icache.mem_side::total        93312                       # Cumulative packet size per connected master and slave (bytes)
system.membus.pkt_size_system.cpu.dcache.mem_side::system.mem_ctrls.port      1501504                       # Cumulative packet size per connected master and slave (bytes)
system.membus.pkt_size_system.cpu.dcache.mem_side::total      1501504                       # Cumulative packet size per connected master and slave (bytes)
system.membus.pkt_size::total                 1594816                       # Cumulative packet size per connected master and slave (bytes)
system.membus.snoops                                0                       # Total snoops (count)
system.membus.snoopTraffic                          0                       # Total snoop traffic (bytes)
system.membus.snoop_fanout::samples             23718                       # Request fanout histogram
system.membus.snoop_fanout::mean                    0                       # Request fanout histogram
system.membus.snoop_fanout::stdev                   0                       # Request fanout histogram
system.membus.snoop_fanout::underflows              0      0.00%      0.00% # Request fanout histogram
system.membus.snoop_fanout::0                   23718    100.00%    100.00% # Request fanout histogram
system.membus.snoop_fanout::1                       0      0.00%    100.00% # Request fanout histogram
system.membus.snoop_fanout::2                       0      0.00%    100.00% # Request fanout histogram
system.membus.snoop_fanout::3                       0      0.00%    100.00% # Request fanout histogram
system.membus.snoop_fanout::4                       0      0.00%    100.00% # Request fanout histogram
system.membus.snoop_fanout::overflows               0      0.00%    100.00% # Request fanout histogram
system.membus.snoop_fanout::min_value               0                       # Request fanout histogram
system.membus.snoop_fanout::max_value               0                       # Request fanout histogram
system.membus.snoop_fanout::total               23718                       # Request fanout histogram
system.membus.reqLayer2.occupancy            52112500                       # Layer occupancy (ticks)
system.membus.reqLayer2.utilization               0.1                       # Layer utilization (%)
system.membus.respLayer1.occupancy            4040500                       # Layer occupancy (ticks)
system.membus.respLayer1.utilization              0.0                       # Layer utilization (%)
system.membus.respLayer2.occupancy          123112000                       # Layer occupancy (ticks)
system.membus.respLayer2.utilization              0.2                       # Layer utilization (%)
system.voltage_domain.voltage                       1                       # Voltage in Volts
system.clk_domain.clock                          1000                       # Clock period in ticks
system.cpu_voltage_domain.voltage                   1                       # Voltage in Volts
system.mem_ctrls.pwrStateResidencyTicks::UNDEFINED  78153927000                       # Cumulative time (in ticks) in various power states
system.mem_ctrls.bytes_read::.cpu.inst          48704                       # Number of bytes read from this memory
system.mem_ctrls.bytes_read::.cpu.data        1469248                       # Number of bytes read from this memory
system.mem_ctrls.bytes_read::total            1517952                       # Number of bytes read from this memory
system.mem_ctrls.bytes_inst_read::.cpu.inst        48704                       # Number of instructions bytes read from this memory
system.mem_ctrls.bytes_inst_read::total         48704                       # Number of instructions bytes read from this memory
system.mem_ctrls.bytes_written::.writebacks        32256                       # Number of bytes written to this memory
system.mem_ctrls.bytes_written::total           32256                       # Number of bytes written to this memory
system.mem_ctrls.num_reads::.cpu.inst             761                       # Number of read requests responded to by this memory
system.mem_ctrls.num_reads::.cpu.data           22957                       # Number of read requests responded to by this memory
system.mem_ctrls.num_reads::total               23718                       # Number of read requests responded to by this memory
system.mem_ctrls.num_writes::.writebacks          504                       # Number of write requests responded to by this memory
system.mem_ctrls.num_writes::total                504                       # Number of write requests responded to by this memory
system.mem_ctrls.bw_read::.cpu.inst            623180                       # Total read bandwidth from this memory (bytes/s)
system.mem_ctrls.bw_read::.cpu.data          18799414                       # Total read bandwidth from this memory (bytes/s)
system.mem_ctrls.bw_read::total              19422594                       # Total read bandwidth from this memory (bytes/s)
system.mem_ctrls.bw_inst_read::.cpu.inst       623180                       # Instruction read bandwidth from this memory (bytes/s)
system.mem_ctrls.bw_inst_read::total           623180                       # Instruction read bandwidth from this memory (bytes/s)
system.mem_ctrls.bw_write::.writebacks         412724                       # Write bandwidth from this memory (bytes/s)
system.mem_ctrls.bw_write::total               412724                       # Write bandwidth from this memory (bytes/s)
system.mem_ctrls.bw_total::.writebacks         412724                       # Total bandwidth to/from this memory (bytes/s)
system.mem_ctrls.bw_total::.cpu.inst           623180                       # Total bandwidth to/from this memory (bytes/s)
system.mem_ctrls.bw_total::.cpu.data         18799414                       # Total bandwidth to/from this memory (bytes/s)
system.mem_ctrls.bw_total::total             19835318                       # Total bandwidth to/from this memory (bytes/s)
system.mem_ctrls.avgPriority_.writebacks::samples       867.00                       # Average QoS priority value for accepted requests
system.mem_ctrls.avgPriority_.cpu.inst::samples       720.00                       # Average QoS priority value for accepted requests
system.mem_ctrls.avgPriority_.cpu.data::samples     22279.00                       # Average QoS priority value for accepted requests
system.mem_ctrls.priorityMinLatency      0.000000018750                       # per QoS priority minimum request to response latency (s)
system.mem_ctrls.priorityMaxLatency      0.156153462500                       # per QoS priority maximum request to response latency (s)
system.mem_ctrls.numReadWriteTurnArounds           52                       # Number of turnarounds from READ to WRITE
system.mem_ctrls.numWriteReadTurnArounds           52                       # Number of turnarounds from WRITE to READ
system.mem_ctrls.numStayReadState               67222                       # Number of times bus staying in READ state
system.mem_ctrls.numStayWriteState                784                       # Number of times bus staying in WRITE state
system.mem_ctrls.readReqs                       23718                       # Number of read requests accepted
system.mem_ctrls.writeReqs                       1201                       # Number of write requests accepted
system.mem_ctrls.readBursts                     23718                       # Number of DRAM read bursts, including those serviced by the write queue
system.mem_ctrls.writeBursts                     1201                       # Number of DRAM write bursts, including those merged in the write queue
system.mem_ctrls.servicedByWrQ                    719                       # Number of DRAM read bursts serviced by the write queue
system.mem_ctrls.mergedWrBursts                   334                       # Number of DRAM write bursts merged with an existing one
system.mem_ctrls.neitherReadNorWriteReqs            0                       # Number of requests that are neither read nor write
system.mem_ctrls.perBankRdBursts::0               205                       # Per bank write bursts
system.mem_ctrls.perBankRdBursts::1              2262                       # Per bank write bursts
system.mem_ctrls.perBankRdBursts::2             19229                       # Per bank write bursts
system.mem_ctrls.perBankRdBursts::3                12                       # Per bank write bursts
system.mem_ctrls.perBankRdBursts::4                13                       # Per bank write bursts
system.mem_ctrls.perBankRdBursts::5                12                       # Per bank write bursts
system.mem_ctrls.perBankRdBursts::6                64                       # Per bank write bursts
system.mem_ctrls.perBankRdBursts::7                50                       # Per bank write bursts
system.mem_ctrls.perBankRdBursts::8                19                       # Per bank write bursts
system.mem_ctrls.perBankRdBursts::9                28                       # Per bank write bursts
system.mem_ctrls.perBankRdBursts::10               58                       # Per bank write bursts
system.mem_ctrls.perBankRdBursts::11               87                       # Per bank write bursts
system.mem_ctrls.perBankRdBursts::12               41                       # Per bank write bursts
system.mem_ctrls.perBankRdBursts::13              171                       # Per bank write bursts
system.mem_ctrls.perBankRdBursts::14              485                       # Per bank write bursts
system.mem_ctrls.perBankRdBursts::15              263                       # Per bank write bursts
system.mem_ctrls.perBankWrBursts::0               157                       # Per bank write bursts
system.mem_ctrls.perBankWrBursts::1                71                       # Per bank write bursts
system.mem_ctrls.perBankWrBursts::2                21                       # Per bank write bursts
system.mem_ctrls.perBankWrBursts::3                 8                       # Per bank write bursts
system.mem_ctrls.perBankWrBursts::4                11                       # Per bank write bursts
system.mem_ctrls.perBankWrBursts::5                10                       # Per bank write bursts
system.mem_ctrls.perBankWrBursts::6                64                       # Per bank write bursts
system.mem_ctrls.perBankWrBursts::7                36                       # Per bank write bursts
system.mem_ctrls.perBankWrBursts::8                21                       # Per bank write bursts
system.mem_ctrls.perBankWrBursts::9                26                       # Per bank write bursts
system.mem_ctrls.perBankWrBursts::10               47                       # Per bank write bursts
system.mem_ctrls.perBankWrBursts::11               52                       # Per bank write bursts
system.mem_ctrls.perBankWrBursts::12               13                       # Per bank write bursts
system.mem_ctrls.perBankWrBursts::13               91                       # Per bank write bursts
system.mem_ctrls.perBankWrBursts::14              136                       # Per bank write bursts
system.mem_ctrls.perBankWrBursts::15               72                       # Per bank write bursts
system.mem_ctrls.avgRdQLen                       1.00                       # Average read queue length when enqueuing
system.mem_ctrls.avgWrQLen                      20.00                       # Average write queue length when enqueuing
system.mem_ctrls.totQLat                    264827250                       # Total ticks spent queuing
system.mem_ctrls.totBusLat                  114995000                       # Total ticks spent in databus transfers
system.mem_ctrls.totMemAccLat               696058500                       # Total ticks spent from burst creation until serviced by the DRAM
system.mem_ctrls.avgQLat                     11514.73                       # Average queueing delay per DRAM burst
system.mem_ctrls.avgBusLat                    5000.00                       # Average bus latency per DRAM burst
system.mem_ctrls.avgMemAccLat                30264.73                       # Average memory access latency per DRAM burst
system.mem_ctrls.numRdRetry                         0                       # Number of times read queue was full causing retry
system.mem_ctrls.numWrRetry                         0                       # Number of times write queue was full causing retry
system.mem_ctrls.readRowHits                    12014                       # Number of row buffer hits during reads
system.mem_ctrls.writeRowHits                     683                       # Number of row buffer hits during writes
system.mem_ctrls.readRowHitRate                 52.24                       # Row buffer hit rate for reads
system.mem_ctrls.writeRowHitRate                78.78                       # Row buffer hit rate for writes
system.mem_ctrls.readPktSize::0                     0                       # Read request sizes (log2)
system.mem_ctrls.readPktSize::1                     0                       # Read request sizes (log2)
system.mem_ctrls.readPktSize::2                     0                       # Read request sizes (log2)
system.mem_ctrls.readPktSize::3                     0                       # Read request sizes (log2)
system.mem_ctrls.readPktSize::4                     0                       # Read request sizes (log2)
system.mem_ctrls.readPktSize::5                     0                       # Read request sizes (log2)
system.mem_ctrls.readPktSize::6                 23718                       # Read request sizes (log2)
system.mem_ctrls.writePktSize::0                    0                       # Write request sizes (log2)
system.mem_ctrls.writePktSize::1                    0                       # Write request sizes (log2)
system.mem_ctrls.writePktSize::2                    0                       # Write request sizes (log2)
system.mem_ctrls.writePktSize::3                    0                       # Write request sizes (log2)
system.mem_ctrls.writePktSize::4                    0                       # Write request sizes (log2)
system.mem_ctrls.writePktSize::5                    0                       # Write request sizes (log2)
system.mem_ctrls.writePktSize::6                 1201                       # Write request sizes (log2)
system.mem_ctrls.rdQLenPdf::0                   22999                       # What read queue length does an incoming req see
system.mem_ctrls.rdQLenPdf::1                       0                       # What read queue length does an incoming req see
system.mem_ctrls.rdQLenPdf::2                       0                       # What read queue length does an incoming req see
system.mem_ctrls.rdQLenPdf::3                       0                       # What read queue length does an incoming req see
system.mem_ctrls.rdQLenPdf::4                       0                       # What read queue length does an incoming req see
system.mem_ctrls.rdQLenPdf::5                       0                       # What read queue length does an incoming req see
system.mem_ctrls.rdQLenPdf::6                       0                       # What read queue length does an incoming req see
system.mem_ctrls.rdQLenPdf::7                       0                       # What read queue length does an incoming req see
system.mem_ctrls.rdQLenPdf::8                       0                       # What read queue length does an incoming req see
system.mem_ctrls.rdQLenPdf::9                       0                       # What read queue length does an incoming req see
system.mem_ctrls.rdQLenPdf::10                      0                       # What read queue length does an incoming req see
system.mem_ctrls.rdQLenPdf::11                      0                       # What read queue length does an incoming req see
system.mem_ctrls.rdQLenPdf::12                      0                       # What read queue length does an incoming req see
system.mem_ctrls.rdQLenPdf::13                      0                       # What read queue length does an incoming req see
system.mem_ctrls.rdQLenPdf::14                      0                       # What read queue length does an incoming req see
system.mem_ctrls.rdQLenPdf::15                      0                       # What read queue length does an incoming req see
system.mem_ctrls.rdQLenPdf::16                      0                       # What read queue length does an incoming req see
system.mem_ctrls.rdQLenPdf::17                      0                       # What read queue length does an incoming req see
system.mem_ctrls.rdQLenPdf::18                      0                       # What read queue length does an incoming req see
system.mem_ctrls.rdQLenPdf::19                      0                       # What read queue length does an incoming req see
system.mem_ctrls.rdQLenPdf::20                      0                       # What read queue length does an incoming req see
system.mem_ctrls.rdQLenPdf::21                      0                       # What read queue length does an incoming req see
system.mem_ctrls.rdQLenPdf::22                      0                       # What read queue length does an incoming req see
system.mem_ctrls.rdQLenPdf::23                      0                       # What read queue length does an incoming req see
system.mem_ctrls.rdQLenPdf::24                      0                       # What read queue length does an incoming req see
system.mem_ctrls.rdQLenPdf::25                      0                       # What read queue length does an incoming req see
system.mem_ctrls.rdQLenPdf::26                      0                       # What read queue length does an incoming req see
system.mem_ctrls.rdQLenPdf::27                      0                       # What read queue length does an incoming req see
system.mem_ctrls.rdQLenPdf::28                      0                       # What read queue length does an incoming req see
system.mem_ctrls.rdQLenPdf::29                      0                       # What read queue length does an incoming req see
system.mem_ctrls.rdQLenPdf::30                      0                       # What read queue length does an incoming req see
system.mem_ctrls.rdQLenPdf::31                      0                       # What read queue length does an incoming req see
system.mem_ctrls.wrQLenPdf::0                       1                       # What write queue length does an incoming req see
system.mem_ctrls.wrQLenPdf::1                       1                       # What write queue length does an incoming req see
system.mem_ctrls.wrQLenPdf::2                       1                       # What write queue length does an incoming req see
system.mem_ctrls.wrQLenPdf::3                       1                       # What write queue length does an incoming req see
system.mem_ctrls.wrQLenPdf::4                       1                       # What write queue length does an incoming req see
system.mem_ctrls.wrQLenPdf::5                       1                       # What write queue length does an incoming req see
system.mem_ctrls.wrQLenPdf::6                       1                       # What write queue length does an incoming req see
system.mem_ctrls.wrQLenPdf::7                       1                       # What write queue length does an incoming req see
system.mem_ctrls.wrQLenPdf::8                       1                       # What write queue length does an incoming req see
system.mem_ctrls.wrQLenPdf::9                       1                       # What write queue length does an incoming req see
system.mem_ctrls.wrQLenPdf::10                      1                       # What write queue length does an incoming req see
system.mem_ctrls.wrQLenPdf::11                      1                       # What write queue length does an incoming req see
system.mem_ctrls.wrQLenPdf::12                      1                       # What write queue length does an incoming req see
system.mem_ctrls.wrQLenPdf::13                      1                       # What write queue length does an incoming req see
system.mem_ctrls.wrQLenPdf::14                      1                       # What write queue length does an incoming req see
system.mem_ctrls.wrQLenPdf::15                      3                       # What write queue length does an incoming req see
system.mem_ctrls.wrQLenPdf::16                      3                       # What write queue length does an incoming req see
system.mem_ctrls.wrQLenPdf::17                     53                       # What write queue length does an incoming req see
system.mem_ctrls.wrQLenPdf::18                     53                       # What write queue length does an incoming req see
system.mem_ctrls.wrQLenPdf::19                     53                       # What write queue length does an incoming req see
system.mem_ctrls.wrQLenPdf::20                     53                       # What write queue length does an incoming req see
system.mem_ctrls.wrQLenPdf::21                     53                       # What write queue length does an incoming req see
system.mem_ctrls.wrQLenPdf::22                     53                       # What write queue length does an incoming req see
system.mem_ctrls.wrQLenPdf::23                     53                       # What write queue length does an incoming req see
system.mem_ctrls.wrQLenPdf::24                     53                       # What write queue length does an incoming req see
system.mem_ctrls.wrQLenPdf::25                     53                       # What write queue length does an incoming req see
system.mem_ctrls.wrQLenPdf::26                     53                       # What write queue length does an incoming req see
system.mem_ctrls.wrQLenPdf::27                     53                       # What write queue length does an incoming req see
system.mem_ctrls.wrQLenPdf::28                     53                       # What write queue length does an incoming req see
system.mem_ctrls.wrQLenPdf::29                     53                       # What write queue length does an incoming req see
system.mem_ctrls.wrQLenPdf::30                     53                       # What write queue length does an incoming req see
system.mem_ctrls.wrQLenPdf::31                     52                       # What write queue length does an incoming req see
system.mem_ctrls.wrQLenPdf::32                     52                       # What write queue length does an incoming req see
system.mem_ctrls.wrQLenPdf::33                      0                       # What write queue length does an incoming req see
system.mem_ctrls.wrQLenPdf::34                      0                       # What write queue length does an incoming req see
system.mem_ctrls.wrQLenPdf::35                      0                       # What write queue length does an incoming req see
system.mem_ctrls.wrQLenPdf::36                      0                       # What write queue length does an incoming req see
system.mem_ctrls.wrQLenPdf::37                      0                       # What write queue length does an incoming req see
system.mem_ctrls.wrQLenPdf::38                      0                       # What write queue length does an incoming req see
system.mem_ctrls.wrQLenPdf::39                      0                       # What write queue length does an incoming req see
system.mem_ctrls.wrQLenPdf::40                      0                       # What write queue length does an incoming req see
system.mem_ctrls.wrQLenPdf::41                      0                       # What write queue length does an incoming req see
system.mem_ctrls.wrQLenPdf::42                      0                       # What write queue length does an incoming req see
system.mem_ctrls.wrQLenPdf::43                      0                       # What write queue length does an incoming req see
system.mem_ctrls.wrQLenPdf::44                      0                       # What write queue length does an incoming req see
system.mem_ctrls.wrQLenPdf::45                      0                       # What write queue length does an incoming req see
system.mem_ctrls.wrQLenPdf::46                      0                       # What write queue length does an incoming req see
system.mem_ctrls.wrQLenPdf::47                      0                       # What write queue length does an incoming req see
system.mem_ctrls.wrQLenPdf::48                      0                       # What write queue length does an incoming req see
system.mem_ctrls.wrQLenPdf::49                      0                       # What write queue length does an incoming req see
system.mem_ctrls.wrQLenPdf::50                      0                       # What write queue length does an incoming req see
system.mem_ctrls.wrQLenPdf::51                      0                       # What write queue length does an incoming req see
system.mem_ctrls.wrQLenPdf::52                      0                       # What write queue length does an incoming req see
system.mem_ctrls.wrQLenPdf::53                      0                       # What write queue length does an incoming req see
system.mem_ctrls.wrQLenPdf::54                      0                       # What write queue length does an incoming req see
system.mem_ctrls.wrQLenPdf::55                      0                       # What write queue length does an incoming req see
system.mem_ctrls.wrQLenPdf::56                      0                       # What write queue length does an incoming req see
system.mem_ctrls.wrQLenPdf::57                      0                       # What write queue length does an incoming req see
system.mem_ctrls.wrQLenPdf::58                      0                       # What write queue length does an incoming req see
system.mem_ctrls.wrQLenPdf::59                      0                       # What write queue length does an incoming req see
system.mem_ctrls.wrQLenPdf::60                      0                       # What write queue length does an incoming req see
system.mem_ctrls.wrQLenPdf::61                      0                       # What write queue length does an incoming req see
system.mem_ctrls.wrQLenPdf::62                      0                       # What write queue length does an incoming req see
system.mem_ctrls.wrQLenPdf::63                      0                       # What write queue length does an incoming req see
system.mem_ctrls.bytesPerActivate::samples        11128                       # Bytes accessed per row activation
system.mem_ctrls.bytesPerActivate::mean    136.914450                       # Bytes accessed per row activation
system.mem_ctrls.bytesPerActivate::gmean   129.461782                       # Bytes accessed per row activation
system.mem_ctrls.bytesPerActivate::stdev    67.931657                       # Bytes accessed per row activation
system.mem_ctrls.bytesPerActivate::0-127          961      8.64%      8.64% # Bytes accessed per row activation
system.mem_ctrls.bytesPerActivate::128-255         9990     89.77%     98.41% # Bytes accessed per row activation
system.mem_ctrls.bytesPerActivate::256-383           68      0.61%     99.02% # Bytes accessed per row activation
system.mem_ctrls.bytesPerActivate::384-511           31      0.28%     99.30% # Bytes accessed per row activation
system.mem_ctrls.bytesPerActivate::512-639           19      0.17%     99.47% # Bytes accessed per row activation
system.mem_ctrls.bytesPerActivate::640-767           11      0.10%     99.57% # Bytes accessed per row activation
system.mem_ctrls.bytesPerActivate::768-895           14      0.13%     99.69% # Bytes accessed per row activation
system.mem_ctrls.bytesPerActivate::896-1023            9      0.08%     99.78% # Bytes accessed per row activation
system.mem_ctrls.bytesPerActivate::1024-1151           25      0.22%    100.00% # Bytes accessed per row activation
system.mem_ctrls.bytesPerActivate::total        11128                       # Bytes accessed per row activation
system.mem_ctrls.rdPerTurnAround::samples           52                       # Reads before turning the bus around for writes
system.mem_ctrls.rdPerTurnAround::mean            442                       # Reads before turning the bus around for writes
system.mem_ctrls.rdPerTurnAround::gmean     22.097084                       # Reads before turning the bus around for writes
system.mem_ctrls.rdPerTurnAround::stdev   3031.270147                       # Reads before turning the bus around for writes
system.mem_ctrls.rdPerTurnAround::0-1023           51     98.08%     98.08% # Reads before turning the bus around for writes
system.mem_ctrls.rdPerTurnAround::21504-22527            1      1.92%    100.00% # Reads before turning the bus around for writes
system.mem_ctrls.rdPerTurnAround::total            52                       # Reads before turning the bus around for writes
system.mem_ctrls.wrPerTurnAround::samples           52                       # Writes before turning the bus around for reads
system.mem_ctrls.wrPerTurnAround::mean      16.076923                       # Writes before turning the bus around for reads
system.mem_ctrls.wrPerTurnAround::gmean     16.072646                       # Writes before turning the bus around for reads
system.mem_ctrls.wrPerTurnAround::stdev      0.388368                       # Writes before turning the bus around for reads
system.mem_ctrls.wrPerTurnAround::16               50     96.15%     96.15% # Writes before turning the bus around for reads
system.mem_ctrls.wrPerTurnAround::18                2      3.85%    100.00% # Writes before turning the bus around for reads
system.mem_ctrls.wrPerTurnAround::total            52                       # Writes before turning the bus around for reads
system.mem_ctrls.bytesReadDRAM                1471936                       # Total number of bytes read from DRAM
system.mem_ctrls.bytesReadWrQ                   46016                       # Total number of bytes read from write queue
system.mem_ctrls.bytesWritten                   53504                       # Total number of bytes written to DRAM
system.mem_ctrls.bytesReadSys                 1517952                       # Total read bytes from the system interface side
system.mem_ctrls.bytesWrittenSys                76864                       # Total written bytes from the system interface side
system.mem_ctrls.avgRdBW                        18.83                       # Average DRAM read bandwidth in MiByte/s
system.mem_ctrls.avgWrBW                         0.68                       # Average achieved write bandwidth in MiByte/s
system.mem_ctrls.avgRdBWSys                     19.42                       # Average system read bandwidth in MiByte/s
system.mem_ctrls.avgWrBWSys                      0.98                       # Average system write bandwidth in MiByte/s
system.mem_ctrls.peakBW                      12800.00                       # Theoretical peak bandwidth in MiByte/s
system.mem_ctrls.busUtil                         0.15                       # Data bus utilization in percentage
system.mem_ctrls.busUtilRead                     0.15                       # Data bus utilization in percentage for reads
system.mem_ctrls.busUtilWrite                    0.01                       # Data bus utilization in percentage for writes
system.mem_ctrls.totGap                   78153912000                       # Total gap between requests
system.mem_ctrls.avgGap                    3136318.15                       # Average gap between requests
system.mem_ctrls.masterReadBytes::.cpu.inst        46080                       # Per-master bytes read from memory
system.mem_ctrls.masterReadBytes::.cpu.data      1425856                       # Per-master bytes read from memory
system.mem_ctrls.masterWriteBytes::.writebacks        53504                       # Per-master bytes write to memory
system.mem_ctrls.masterReadRate::.cpu.inst 589605.689295689575                       # Per-master bytes read from memory rate (Bytes/sec)
system.mem_ctrls.masterReadRate::.cpu.data 18244201.599748149514                       # Per-master bytes read from memory rate (Bytes/sec)
system.mem_ctrls.masterWriteRate::.writebacks 684597.717015550588                       # Per-master bytes write to memory rate (Bytes/sec)
system.mem_ctrls.masterReadAccesses::.cpu.inst          761                       # Per-master read serviced memory accesses
system.mem_ctrls.masterReadAccesses::.cpu.data        22957                       # Per-master read serviced memory accesses
system.mem_ctrls.masterWriteAccesses::.writebacks         1201                       # Per-master write serviced memory accesses
system.mem_ctrls.masterReadTotalLat::.cpu.inst     20976500                       # Per-master read total memory access latency
system.mem_ctrls.masterReadTotalLat::.cpu.data    675082000                       # Per-master read total memory access latency
system.mem_ctrls.masterWriteTotalLat::.writebacks 1562627406750                       # Per-master write total memory access latency
system.mem_ctrls.masterReadAvgLat::.cpu.inst     27564.39                       # Per-master read average memory access latency
system.mem_ctrls.masterReadAvgLat::.cpu.data     29406.37                       # Per-master read average memory access latency
system.mem_ctrls.masterWriteAvgLat::.writebacks 1301105251.25                       # Per-master write average memory access latency
system.mem_ctrls.pageHitRate                    53.20                       # Row buffer hit rate, read and write combined
system.mem_ctrls.rank1.actEnergy              4198320                       # Energy for activate commands per rank (pJ)
system.mem_ctrls.rank1.preEnergy              2208690                       # Energy for precharge commands per rank (pJ)
system.mem_ctrls.rank1.readEnergy             8225280                       # Energy for read commands per rank (pJ)
system.mem_ctrls.rank1.writeEnergy            2390760                       # Energy for write commands per rank (pJ)
system.mem_ctrls.rank1.refreshEnergy     6169141680.000001                       # Energy for refresh commands per rank (pJ)
system.mem_ctrls.rank1.actBackEnergy       1534434300                       # Energy for active background per rank (pJ)
system.mem_ctrls.rank1.preBackEnergy      28718952960                       # Energy for precharge background per rank (pJ)
system.mem_ctrls.rank1.actPowerDownEnergy            0                       # Energy for active power-down per rank (pJ)
system.mem_ctrls.rank1.prePowerDownEnergy            0                       # Energy for precharge power-down per rank (pJ)
system.mem_ctrls.rank1.selfRefreshEnergy            0                       # Energy for self refresh per rank (pJ)
system.mem_ctrls.rank1.totalEnergy        36439551990                       # Total energy per rank (pJ)
system.mem_ctrls.rank1.averagePower        466.253628                       # Core power per rank (mW)
system.mem_ctrls.rank1.totalIdleTime                0                       # Total Idle time Per DRAM Rank
system.mem_ctrls.rank1.memoryStateTime::IDLE  74648344000                       # Time in different power states
system.mem_ctrls.rank1.memoryStateTime::REF   2609620000                       # Time in different power states
system.mem_ctrls.rank1.memoryStateTime::SREF            0                       # Time in different power states
system.mem_ctrls.rank1.memoryStateTime::PRE_PDN            0                       # Time in different power states
system.mem_ctrls.rank1.memoryStateTime::ACT    895963000                       # Time in different power states
system.mem_ctrls.rank1.memoryStateTime::ACT_PDN            0                       # Time in different power states
system.mem_ctrls.rank0.actEnergy             75327000                       # Energy for activate commands per rank (pJ)
system.mem_ctrls.rank0.preEnergy             40022070                       # Energy for precharge commands per rank (pJ)
system.mem_ctrls.rank0.readEnergy           155987580                       # Energy for read commands per rank (pJ)
system.mem_ctrls.rank0.writeEnergy            1973160                       # Energy for write commands per rank (pJ)
system.mem_ctrls.rank0.refreshEnergy     6169141680.000001                       # Energy for refresh commands per rank (pJ)
system.mem_ctrls.rank0.actBackEnergy      28058423280                       # Energy for active background per rank (pJ)
system.mem_ctrls.rank0.preBackEnergy       6382962240                       # Energy for precharge background per rank (pJ)
system.mem_ctrls.rank0.actPowerDownEnergy            0                       # Energy for active power-down per rank (pJ)
system.mem_ctrls.rank0.prePowerDownEnergy            0                       # Energy for precharge power-down per rank (pJ)
system.mem_ctrls.rank0.selfRefreshEnergy            0                       # Energy for self refresh per rank (pJ)
system.mem_ctrls.rank0.totalEnergy        40883837010                       # Total energy per rank (pJ)
system.mem_ctrls.rank0.averagePower        523.119421                       # Core power per rank (mW)
system.mem_ctrls.rank0.totalIdleTime                0                       # Total Idle time Per DRAM Rank
system.mem_ctrls.rank0.memoryStateTime::IDLE  16341745750                       # Time in different power states
system.mem_ctrls.rank0.memoryStateTime::REF   2609620000                       # Time in different power states
system.mem_ctrls.rank0.memoryStateTime::SREF            0                       # Time in different power states
system.mem_ctrls.rank0.memoryStateTime::PRE_PDN            0                       # Time in different power states
system.mem_ctrls.rank0.memoryStateTime::ACT  59202561250                       # Time in different power states
system.mem_ctrls.rank0.memoryStateTime::ACT_PDN            0                       # Time in different power states
system.cpu_clk_domain.clock                       500                       # Clock period in ticks
system.cpu.numPwrStateTransitions                   1                       # Number of power state transitions
system.cpu.pwrStateResidencyTicks::ON     78153927000                       # Cumulative time (in ticks) in various power states
system.cpu.icache.pwrStateResidencyTicks::UNDEFINED  78153927000                       # Cumulative time (in ticks) in various power states
system.cpu.icache.demand_hits::.cpu.inst     57537384                       # number of demand (read+write) hits
system.cpu.icache.demand_hits::total         57537384                       # number of demand (read+write) hits
system.cpu.icache.overall_hits::.cpu.inst     57537384                       # number of overall hits
system.cpu.icache.overall_hits::total        57537384                       # number of overall hits
system.cpu.icache.demand_misses::.cpu.inst          761                       # number of demand (read+write) misses
system.cpu.icache.demand_misses::total            761                       # number of demand (read+write) misses
system.cpu.icache.overall_misses::.cpu.inst          761                       # number of overall misses
system.cpu.icache.overall_misses::total           761                       # number of overall misses
system.cpu.icache.demand_miss_latency::.cpu.inst     45339000                       # number of demand (read+write) miss cycles
system.cpu.icache.demand_miss_latency::total     45339000                       # number of demand (read+write) miss cycles
system.cpu.icache.overall_miss_latency::.cpu.inst     45339000                       # number of overall miss cycles
system.cpu.icache.overall_miss_latency::total     45339000                       # number of overall miss cycles
system.cpu.icache.demand_accesses::.cpu.inst     57538145                       # number of demand (read+write) accesses
system.cpu.icache.demand_accesses::total     57538145                       # number of demand (read+write) accesses
system.cpu.icache.overall_accesses::.cpu.inst     57538145                       # number of overall (read+write) accesses
system.cpu.icache.overall_accesses::total     57538145                       # number of overall (read+write) accesses
system.cpu.icache.demand_miss_rate::.cpu.inst     0.000013                       # miss rate for demand accesses
system.cpu.icache.demand_miss_rate::total     0.000013                       # miss rate for demand accesses
system.cpu.icache.overall_miss_rate::.cpu.inst     0.000013                       # miss rate for overall accesses
system.cpu.icache.overall_miss_rate::total     0.000013                       # miss rate for overall accesses
system.cpu.icache.demand_avg_miss_latency::.cpu.inst 59578.186597                       # average overall miss latency
system.cpu.icache.demand_avg_miss_latency::total 59578.186597                       # average overall miss latency
system.cpu.icache.overall_avg_miss_latency::.cpu.inst 59578.186597                       # average overall miss latency
system.cpu.icache.overall_avg_miss_latency::total 59578.186597                       # average overall miss latency
system.cpu.icache.blocked_cycles::no_mshrs            0                       # number of cycles access was blocked
system.cpu.icache.blocked_cycles::no_targets            0                       # number of cycles access was blocked
system.cpu.icache.blocked::no_mshrs                 0                       # number of cycles access was blocked
system.cpu.icache.blocked::no_targets               0                       # number of cycles access was blocked
system.cpu.icache.avg_blocked_cycles::no_mshrs          nan                       # average number of cycles each access was blocked
system.cpu.icache.avg_blocked_cycles::no_targets          nan                       # average number of cycles each access was blocked
system.cpu.icache.writebacks::.writebacks          697                       # number of writebacks
system.cpu.icache.writebacks::total               697                       # number of writebacks
system.cpu.icache.demand_mshr_misses::.cpu.inst          761                       # number of demand (read+write) MSHR misses
system.cpu.icache.demand_mshr_misses::total          761                       # number of demand (read+write) MSHR misses
system.cpu.icache.overall_mshr_misses::.cpu.inst          761                       # number of overall MSHR misses
system.cpu.icache.overall_mshr_misses::total          761                       # number of overall MSHR misses
system.cpu.icache.demand_mshr_miss_latency::.cpu.inst     44578000                       # number of demand (read+write) MSHR miss cycles
system.cpu.icache.demand_mshr_miss_latency::total     44578000                       # number of demand (read+write) MSHR miss cycles
system.cpu.icache.overall_mshr_miss_latency::.cpu.inst     44578000                       # number of overall MSHR miss cycles
system.cpu.icache.overall_mshr_miss_latency::total     44578000                       # number of overall MSHR miss cycles
system.cpu.icache.demand_mshr_miss_rate::.cpu.inst     0.000013                       # mshr miss rate for demand accesses
system.cpu.icache.demand_mshr_miss_rate::total     0.000013                       # mshr miss rate for demand accesses
system.cpu.icache.overall_mshr_miss_rate::.cpu.inst     0.000013                       # mshr miss rate for overall accesses
system.cpu.icache.overall_mshr_miss_rate::total     0.000013                       # mshr miss rate for overall accesses
system.cpu.icache.demand_avg_mshr_miss_latency::.cpu.inst 58578.186597                       # average overall mshr miss latency
system.cpu.icache.demand_avg_mshr_miss_latency::total 58578.186597                       # average overall mshr miss latency
system.cpu.icache.overall_avg_mshr_miss_latency::.cpu.inst 58578.186597                       # average overall mshr miss latency
system.cpu.icache.overall_avg_mshr_miss_latency::total 58578.186597                       # average overall mshr miss latency
system.cpu.icache.replacements                    697                       # number of replacements
system.cpu.icache.ReadReq_hits::.cpu.inst     57537384                       # number of ReadReq hits
system.cpu.icache.ReadReq_hits::total        57537384                       # number of ReadReq hits
system.cpu.icache.ReadReq_misses::.cpu.inst          761                       # number of ReadReq misses
system.cpu.icache.ReadReq_misses::total           761                       # number of ReadReq misses
system.cpu.icache.ReadReq_miss_latency::.cpu.inst     45339000                       # number of ReadReq miss cycles
system.cpu.icache.ReadReq_miss_latency::total     45339000                       # number of ReadReq miss cycles
system.cpu.icache.ReadReq_accesses::.cpu.inst     57538145                       # number of ReadReq accesses(hits+misses)
system.cpu.icache.ReadReq_accesses::total     57538145                       # number of ReadReq accesses(hits+misses)
system.cpu.icache.ReadReq_miss_rate::.cpu.inst     0.000013                       # miss rate for ReadReq accesses
system.cpu.icache.ReadReq_miss_rate::total     0.000013                       # miss rate for ReadReq accesses
system.cpu.icache.ReadReq_avg_miss_latency::.cpu.inst 59578.186597                       # average ReadReq miss latency
system.cpu.icache.ReadReq_avg_miss_latency::total 59578.186597                       # average ReadReq miss latency
system.cpu.icache.ReadReq_mshr_misses::.cpu.inst          761                       # number of ReadReq MSHR misses
system.cpu.icache.ReadReq_mshr_misses::total          761                       # number of ReadReq MSHR misses
system.cpu.icache.ReadReq_mshr_miss_latency::.cpu.inst     44578000                       # number of ReadReq MSHR miss cycles
system.cpu.icache.ReadReq_mshr_miss_latency::total     44578000                       # number of ReadReq MSHR miss cycles
system.cpu.icache.ReadReq_mshr_miss_rate::.cpu.inst     0.000013                       # mshr miss rate for ReadReq accesses
system.cpu.icache.ReadReq_mshr_miss_rate::total     0.000013                       # mshr miss rate for ReadReq accesses
system.cpu.icache.ReadReq_avg_mshr_miss_latency::.cpu.inst 58578.186597                       # average ReadReq mshr miss latency
system.cpu.icache.ReadReq_avg_mshr_miss_latency::total 58578.186597                       # average ReadReq mshr miss latency
system.cpu.icache.tags.pwrStateResidencyTicks::UNDEFINED  78153927000                       # Cumulative time (in ticks) in various power states
system.cpu.icache.tags.tagsinuse            63.996331                       # Cycle average of tags in use
system.cpu.icache.tags.total_refs            57538145                       # Total number of references to valid blocks.
system.cpu.icache.tags.sampled_refs               761                       # Sample count of references to valid blocks.
system.cpu.icache.tags.avg_refs          75608.600526                       # Average number of references to valid blocks.
system.cpu.icache.tags.warmup_cycle             77000                       # Cycle when the warmup percentage was hit.
system.cpu.icache.tags.occ_blocks::.cpu.inst    63.996331                       # Average occupied blocks per requestor
system.cpu.icache.tags.occ_percent::.cpu.inst     0.999943                       # Average percentage of cache occupancy
system.cpu.icache.tags.occ_percent::total     0.999943                       # Average percentage of cache occupancy
system.cpu.icache.tags.occ_task_id_blocks::1024           64                       # Occupied blocks per task id
system.cpu.icache.tags.age_task_id_blocks_1024::0           55                       # Occupied blocks per task id
system.cpu.icache.tags.age_task_id_blocks_1024::1            9                       # Occupied blocks per task id
system.cpu.icache.tags.occ_task_id_percent::1024            1                       # Percentage of cache occupancy per task id
system.cpu.icache.tags.tag_accesses         115077051                       # Number of tag accesses
system.cpu.icache.tags.data_accesses        115077051                       # Number of data accesses
system.cpu.dtb.walker.pwrStateResidencyTicks::UNDEFINED  78153927000                       # Cumulative time (in ticks) in various power states
system.cpu.interrupts.clk_domain.clock           8000                       # Clock period in ticks
system.cpu.itb_walker_cache.pwrStateResidencyTicks::UNDEFINED  78153927000                       # Cumulative time (in ticks) in various power states
system.cpu.itb_walker_cache.blocked_cycles::no_mshrs            0                       # number of cycles access was blocked
system.cpu.itb_walker_cache.blocked_cycles::no_targets            0                       # number of cycles access was blocked
system.cpu.itb_walker_cache.blocked::no_mshrs            0                       # number of cycles access was blocked
system.cpu.itb_walker_cache.blocked::no_targets            0                       # number of cycles access was blocked
system.cpu.itb_walker_cache.avg_blocked_cycles::no_mshrs          nan                       # average number of cycles each access was blocked
system.cpu.itb_walker_cache.avg_blocked_cycles::no_targets          nan                       # average number of cycles each access was blocked
system.cpu.itb_walker_cache.replacements            0                       # number of replacements
system.cpu.itb_walker_cache.tags.pwrStateResidencyTicks::UNDEFINED  78153927000                       # Cumulative time (in ticks) in various power states
system.cpu.itb_walker_cache.tags.tagsinuse            0                       # Cycle average of tags in use
system.cpu.itb_walker_cache.tags.total_refs            0                       # Total number of references to valid blocks.
system.cpu.itb_walker_cache.tags.sampled_refs            0                       # Sample count of references to valid blocks.
system.cpu.itb_walker_cache.tags.avg_refs          nan                       # Average number of references to valid blocks.
system.cpu.itb_walker_cache.tags.warmup_cycle            0                       # Cycle when the warmup percentage was hit.
system.cpu.itb_walker_cache.tags.tag_accesses            0                       # Number of tag accesses
system.cpu.itb_walker_cache.tags.data_accesses            0                       # Number of data accesses
system.cpu.itb.walker.pwrStateResidencyTicks::UNDEFINED  78153927000                       # Cumulative time (in ticks) in various power states
system.cpu.dtb_walker_cache.pwrStateResidencyTicks::UNDEFINED  78153927000                       # Cumulative time (in ticks) in various power states
system.cpu.dtb_walker_cache.blocked_cycles::no_mshrs            0                       # number of cycles access was blocked
system.cpu.dtb_walker_cache.blocked_cycles::no_targets            0                       # number of cycles access was blocked
system.cpu.dtb_walker_cache.blocked::no_mshrs            0                       # number of cycles access was blocked
system.cpu.dtb_walker_cache.blocked::no_targets            0                       # number of cycles access was blocked
system.cpu.dtb_walker_cache.avg_blocked_cycles::no_mshrs          nan                       # average number of cycles each access was blocked
system.cpu.dtb_walker_cache.avg_blocked_cycles::no_targets          nan                       # average number of cycles each access was blocked
system.cpu.dtb_walker_cache.replacements            0                       # number of replacements
system.cpu.dtb_walker_cache.tags.pwrStateResidencyTicks::UNDEFINED  78153927000                       # Cumulative time (in ticks) in various power states
system.cpu.dtb_walker_cache.tags.tagsinuse            0                       # Cycle average of tags in use
system.cpu.dtb_walker_cache.tags.total_refs            0                       # Total number of references to valid blocks.
system.cpu.dtb_walker_cache.tags.sampled_refs            0                       # Sample count of references to valid blocks.
system.cpu.dtb_walker_cache.tags.avg_refs          nan                       # Average number of references to valid blocks.
system.cpu.dtb_walker_cache.tags.warmup_cycle            0                       # Cycle when the warmup percentage was hit.
system.cpu.dtb_walker_cache.tags.tag_accesses            0                       # Number of tag accesses
system.cpu.dtb_walker_cache.tags.data_accesses            0                       # Number of data accesses
system.cpu.dcache.pwrStateResidencyTicks::UNDEFINED  78153927000                       # Cumulative time (in ticks) in various power states
system.cpu.dcache.demand_hits::.cpu.data     19157299                       # number of demand (read+write) hits
system.cpu.dcache.demand_hits::total         19157299                       # number of demand (read+write) hits
system.cpu.dcache.overall_hits::.cpu.data     19157299                       # number of overall hits
system.cpu.dcache.overall_hits::total        19157299                       # number of overall hits
system.cpu.dcache.demand_misses::.cpu.data        22957                       # number of demand (read+write) misses
system.cpu.dcache.demand_misses::total          22957                       # number of demand (read+write) misses
system.cpu.dcache.overall_misses::.cpu.data        22957                       # number of overall misses
system.cpu.dcache.overall_misses::total         22957                       # number of overall misses
system.cpu.dcache.demand_miss_latency::.cpu.data   1411394500                       # number of demand (read+write) miss cycles
system.cpu.dcache.demand_miss_latency::total   1411394500                       # number of demand (read+write) miss cycles
system.cpu.dcache.overall_miss_latency::.cpu.data   1411394500                       # number of overall miss cycles
system.cpu.dcache.overall_miss_latency::total   1411394500                       # number of overall miss cycles
system.cpu.dcache.demand_accesses::.cpu.data     19180256                       # number of demand (read+write) accesses
system.cpu.dcache.demand_accesses::total     19180256                       # number of demand (read+write) accesses
system.cpu.dcache.overall_accesses::.cpu.data     19180256                       # number of overall (read+write) accesses
system.cpu.dcache.overall_accesses::total     19180256                       # number of overall (read+write) accesses
system.cpu.dcache.demand_miss_rate::.cpu.data     0.001197                       # miss rate for demand accesses
system.cpu.dcache.demand_miss_rate::total     0.001197                       # miss rate for demand accesses
system.cpu.dcache.overall_miss_rate::.cpu.data     0.001197                       # miss rate for overall accesses
system.cpu.dcache.overall_miss_rate::total     0.001197                       # miss rate for overall accesses
system.cpu.dcache.demand_avg_miss_latency::.cpu.data 61479.918979                       # average overall miss latency
system.cpu.dcache.demand_avg_miss_latency::total 61479.918979                       # average overall miss latency
system.cpu.dcache.overall_avg_miss_latency::.cpu.data 61479.918979                       # average overall miss latency
system.cpu.dcache.overall_avg_miss_latency::total 61479.918979                       # average overall miss latency
system.cpu.dcache.blocked_cycles::no_mshrs            0                       # number of cycles access was blocked
system.cpu.dcache.blocked_cycles::no_targets            0                       # number of cycles access was blocked
system.cpu.dcache.blocked::no_mshrs                 0                       # number of cycles access was blocked
system.cpu.dcache.blocked::no_targets               0                       # number of cycles access was blocked
system.cpu.dcache.avg_blocked_cycles::no_mshrs          nan                       # average number of cycles each access was blocked
system.cpu.dcache.avg_blocked_cycles::no_targets          nan                       # average number of cycles each access was blocked
system.cpu.dcache.writebacks::.writebacks          504                       # number of writebacks
system.cpu.dcache.writebacks::total               504                       # number of writebacks
system.cpu.dcache.demand_mshr_misses::.cpu.data        22957                       # number of demand (read+write) MSHR misses
system.cpu.dcache.demand_mshr_misses::total        22957                       # number of demand (read+write) MSHR misses
system.cpu.dcache.overall_mshr_misses::.cpu.data        22957                       # number of overall MSHR misses
system.cpu.dcache.overall_mshr_misses::total        22957                       # number of overall MSHR misses
system.cpu.dcache.demand_mshr_miss_latency::.cpu.data   1388437500                       # number of demand (read+write) MSHR miss cycles
system.cpu.dcache.demand_mshr_miss_latency::total   1388437500                       # number of demand (read+write) MSHR miss cycles
system.cpu.dcache.overall_mshr_miss_latency::.cpu.data   1388437500                       # number of overall MSHR miss cycles
system.cpu.dcache.overall_mshr_miss_latency::total   1388437500                       # number of overall MSHR miss cycles
system.cpu.dcache.demand_mshr_miss_rate::.cpu.data     0.001197                       # mshr miss rate for demand accesses
system.cpu.dcache.demand_mshr_miss_rate::total     0.001197                       # mshr miss rate for demand accesses
system.cpu.dcache.overall_mshr_miss_rate::.cpu.data     0.001197                       # mshr miss rate for overall accesses
system.cpu.dcache.overall_mshr_miss_rate::total     0.001197                       # mshr miss rate for overall accesses
system.cpu.dcache.demand_avg_mshr_miss_latency::.cpu.data 60479.918979                       # average overall mshr miss latency
system.cpu.dcache.demand_avg_mshr_miss_latency::total 60479.918979                       # average overall mshr miss latency
system.cpu.dcache.overall_avg_mshr_miss_latency::.cpu.data 60479.918979                       # average overall mshr miss latency
system.cpu.dcache.overall_avg_mshr_miss_latency::total 60479.918979                       # average overall mshr miss latency
system.cpu.dcache.replacements                  22893                       # number of replacements
system.cpu.dcache.ReadReq_hits::.cpu.data     13675783                       # number of ReadReq hits
system.cpu.dcache.ReadReq_hits::total        13675783                       # number of ReadReq hits
system.cpu.dcache.ReadReq_misses::.cpu.data        22641                       # number of ReadReq misses
system.cpu.dcache.ReadReq_misses::total         22641                       # number of ReadReq misses
system.cpu.dcache.ReadReq_miss_latency::.cpu.data   1398845000                       # number of ReadReq miss cycles
system.cpu.dcache.ReadReq_miss_latency::total   1398845000                       # number of ReadReq miss cycles
system.cpu.dcache.ReadReq_accesses::.cpu.data     13698424                       # number of ReadReq accesses(hits+misses)
system.cpu.dcache.ReadReq_accesses::total     13698424                       # number of ReadReq accesses(hits+misses)
system.cpu.dcache.ReadReq_miss_rate::.cpu.data     0.001653                       # miss rate for ReadReq accesses
system.cpu.dcache.ReadReq_miss_rate::total     0.001653                       # miss rate for ReadReq accesses
system.cpu.dcache.ReadReq_avg_miss_latency::.cpu.data 61783.710967                       # average ReadReq miss latency
system.cpu.dcache.ReadReq_avg_miss_latency::total 61783.710967                       # average ReadReq miss latency
system.cpu.dcache.ReadReq_mshr_misses::.cpu.data        22641                       # number of ReadReq MSHR misses
system.cpu.dcache.ReadReq_mshr_misses::total        22641                       # number of ReadReq MSHR misses
system.cpu.dcache.ReadReq_mshr_miss_latency::.cpu.data   1376204000                       # number of ReadReq MSHR miss cycles
system.cpu.dcache.ReadReq_mshr_miss_latency::total   1376204000                       # number of ReadReq MSHR miss cycles
system.cpu.dcache.ReadReq_mshr_miss_rate::.cpu.data     0.001653                       # mshr miss rate for ReadReq accesses
system.cpu.dcache.ReadReq_mshr_miss_rate::total     0.001653                       # mshr miss rate for ReadReq accesses
system.cpu.dcache.ReadReq_avg_mshr_miss_latency::.cpu.data 60783.710967                       # average ReadReq mshr miss latency
system.cpu.dcache.ReadReq_avg_mshr_miss_latency::total 60783.710967                       # average ReadReq mshr miss latency
system.cpu.dcache.WriteReq_hits::.cpu.data      5481516                       # number of WriteReq hits
system.cpu.dcache.WriteReq_hits::total        5481516                       # number of WriteReq hits
system.cpu.dcache.WriteReq_misses::.cpu.data          316                       # number of WriteReq misses
system.cpu.dcache.WriteReq_misses::total          316                       # number of WriteReq misses
system.cpu.dcache.WriteReq_miss_latency::.cpu.data     12549500                       # number of WriteReq miss cycles
system.cpu.dcache.WriteReq_miss_latency::total     12549500                       # number of WriteReq miss cycles
system.cpu.dcache.WriteReq_accesses::.cpu.data      5481832                       # number of WriteReq accesses(hits+misses)
system.cpu.dcache.WriteReq_accesses::total      5481832                       # number of WriteReq accesses(hits+misses)
system.cpu.dcache.WriteReq_miss_rate::.cpu.data     0.000058                       # miss rate for WriteReq accesses
system.cpu.dcache.WriteReq_miss_rate::total     0.000058                       # miss rate for WriteReq accesses
system.cpu.dcache.WriteReq_avg_miss_latency::.cpu.data 39713.607595                       # average WriteReq miss latency
system.cpu.dcache.WriteReq_avg_miss_latency::total 39713.607595                       # average WriteReq miss latency
system.cpu.dcache.WriteReq_mshr_misses::.cpu.data          316                       # number of WriteReq MSHR misses
system.cpu.dcache.WriteReq_mshr_misses::total          316                       # number of WriteReq MSHR misses
system.cpu.dcache.WriteReq_mshr_miss_latency::.cpu.data     12233500                       # number of WriteReq MSHR miss cycles
system.cpu.dcache.WriteReq_mshr_miss_latency::total     12233500                       # number of WriteReq MSHR miss cycles
system.cpu.dcache.WriteReq_mshr_miss_rate::.cpu.data     0.000058                       # mshr miss rate for WriteReq accesses
system.cpu.dcache.WriteReq_mshr_miss_rate::total     0.000058                       # mshr miss rate for WriteReq accesses
system.cpu.dcache.WriteReq_avg_mshr_miss_latency::.cpu.data 38713.607595                       # average WriteReq mshr miss latency
system.cpu.dcache.WriteReq_avg_mshr_miss_latency::total 38713.607595                       # average WriteReq mshr miss latency
system.cpu.dcache.tags.pwrStateResidencyTicks::UNDEFINED  78153927000                       # Cumulative time (in ticks) in various power states
system.cpu.dcache.tags.tagsinuse            63.995573                       # Cycle average of tags in use
system.cpu.dcache.tags.total_refs            19180256                       # Total number of references to valid blocks.
system.cpu.dcache.tags.sampled_refs             22957                       # Sample count of references to valid blocks.
system.cpu.dcache.tags.avg_refs            835.486170                       # Average number of references to valid blocks.
system.cpu.dcache.tags.warmup_cycle            148000                       # Cycle when the warmup percentage was hit.
system.cpu.dcache.tags.occ_blocks::.cpu.data    63.995573                       # Average occupied blocks per requestor
system.cpu.dcache.tags.occ_percent::.cpu.data     0.999931                       # Average percentage of cache occupancy
system.cpu.dcache.tags.occ_percent::total     0.999931                       # Average percentage of cache occupancy
system.cpu.dcache.tags.occ_task_id_blocks::1024           64                       # Occupied blocks per task id
system.cpu.dcache.tags.age_task_id_blocks_1024::0           25                       # Occupied blocks per task id
system.cpu.dcache.tags.age_task_id_blocks_1024::1           37                       # Occupied blocks per task id
system.cpu.dcache.tags.age_task_id_blocks_1024::4            2                       # Occupied blocks per task id
system.cpu.dcache.tags.occ_task_id_percent::1024            1                       # Percentage of cache occupancy per task id
system.cpu.dcache.tags.tag_accesses         153465005                       # Number of tag accesses
system.cpu.dcache.tags.data_accesses        153465005                       # Number of data accesses

---------- End Simulation Statistics   ----------
